<?xml version="1.0" encoding="UTF-8"?>

<!-- generated on 2026-07-01T15:04:21.146930+05:30 by Eclipse SUMO netconvert 1.27.0
<netconvertConfiguration xmlns:xsi="http://www.w3.org/2001/XMLSchema-instance" xsi:noNamespaceSchemaLocation="http://sumo.dlr.de/xsd/netconvertConfiguration.xsd">

    <input>
        <type-files value="/home/sdvn_ssh/.local/lib/python3.10/site-packages/sumo/data/typemap/osmNetconvert.typ.xml"/>
        <osm-files value="galle_2km.osm.xml"/>
    </input>

    <output>
        <output-file value="galle.net.xml"/>
    </output>

    <projection>
        <proj.utm value="true"/>
    </projection>

    <processing>
        <geometry.remove value="true"/>
        <roundabouts.guess value="true"/>
    </processing>

    <tls_building>
        <tls.discard-simple value="true"/>
        <tls.join value="true"/>
        <tls.guess-signals value="true"/>
    </tls_building>

    <ramp_guessing>
        <ramps.guess value="true"/>
    </ramp_guessing>

    <edge_removal>
        <keep-edges.by-vclass value="passenger,bus,truck,delivery"/>
        <keep-edges.components value="1"/>
        <remove-edges.isolated value="true"/>
    </edge_removal>

    <junctions>
        <no-turnarounds value="true"/>
        <junctions.join value="true"/>
    </junctions>

</netconvertConfiguration>
-->

<net version="1.20" junctionCornerDetail="5" limitTurnSpeed="5.50" xmlns:xsi="http://www.w3.org/2001/XMLSchema-instance" xsi:noNamespaceSchemaLocation="http://sumo.dlr.de/xsd/net_file.xsd">

    <location netOffset="-412727.47,-668130.82" convBoundary="0.00,0.00,2097.40,2120.26" origBoundary="80.211367,6.044007,80.230417,6.063575" projParameter="+proj=utm +zone=44 +ellps=WGS84 +datum=WGS84 +units=m +no_defs"/>

    <type id="highway.primary" priority="12" numLanes="2" speed="27.78" disallow="tram rail_urban rail rail_electric rail_fast ship container cable_car subway aircraft wheelchair scooter drone" oneway="0"/>
    <type id="highway.primary_link" priority="7" numLanes="1" speed="22.22" disallow="tram rail_urban rail rail_electric rail_fast ship container cable_car subway aircraft wheelchair scooter drone" oneway="0"/>
    <type id="highway.residential" priority="3" numLanes="1" speed="13.89" disallow="tram rail_urban rail rail_electric rail_fast ship container cable_car subway aircraft wheelchair scooter drone" oneway="0"/>
    <type id="highway.secondary" priority="11" numLanes="1" speed="27.78" disallow="tram rail_urban rail rail_electric rail_fast ship container cable_car subway aircraft wheelchair scooter drone" oneway="0"/>
    <type id="highway.service" priority="1" numLanes="1" speed="5.56" allow="pedestrian delivery bicycle" oneway="0"/>
    <type id="highway.tertiary" priority="10" numLanes="1" speed="22.22" disallow="tram rail_urban rail rail_electric rail_fast ship container cable_car subway aircraft wheelchair scooter drone" oneway="0"/>
    <type id="highway.unclassified" priority="4" numLanes="1" speed="13.89" disallow="tram rail_urban rail rail_electric rail_fast ship container cable_car subway aircraft wheelchair scooter drone" oneway="0"/>

    <edge id=":10044736036_0" function="internal">
        <lane id=":10044736036_0_0" index="0" disallow="tram rail_urban rail rail_electric rail_fast ship container cable_car subway aircraft wheelchair scooter drone" speed="13.89" length="14.01" shape="859.41,1990.38 850.11,2000.85"/>
    </edge>
    <edge id=":10044736036_1" function="internal">
        <lane id=":10044736036_1_0" index="0" disallow="tram rail_urban rail rail_electric rail_fast ship container cable_car subway aircraft wheelchair scooter drone" speed="7.99" length="3.79" shape="859.41,1990.38 856.42,1992.71"/>
    </edge>
    <edge id=":10044736036_6" function="internal">
        <lane id=":10044736036_6_0" index="0" disallow="tram rail_urban rail rail_electric rail_fast ship container cable_car subway aircraft wheelchair scooter drone" speed="7.99" length="10.43" shape="856.42,1992.71 856.34,1992.78 853.24,1993.61 850.11,1992.87 846.97,1990.57"/>
    </edge>
    <edge id=":10044736036_2" function="internal">
        <lane id=":10044736036_2_0" index="0" disallow="tram rail_urban rail rail_electric rail_fast ship container cable_car subway aircraft wheelchair scooter drone" speed="6.49" length="9.03" shape="849.20,1988.28 851.20,1989.74 853.19,1990.21 855.15,1989.68 857.11,1988.16"/>
    </edge>
    <edge id=":10044736036_3" function="internal">
        <lane id=":10044736036_3_0" index="0" disallow="tram rail_urban rail rail_electric rail_fast ship container cable_car subway aircraft wheelchair scooter drone" speed="8.25" length="14.10" shape="849.20,1988.28 851.59,1991.34 852.53,1994.46 852.04,1997.62 850.11,2000.85"/>
    </edge>
    <edge id=":10044736036_4" function="internal">
        <lane id=":10044736036_4_0" index="0" disallow="tram rail_urban rail rail_electric rail_fast ship container cable_car subway aircraft wheelchair scooter drone" speed="6.80" length="9.27" shape="847.63,1998.82 848.88,1996.72 849.19,1994.64 848.55,1992.59 846.97,1990.57"/>
    </edge>
    <edge id=":10044736036_5" function="internal">
        <lane id=":10044736036_5_0" index="0" disallow="tram rail_urban rail rail_electric rail_fast ship container cable_car subway aircraft wheelchair scooter drone" speed="13.89" length="14.27" shape="847.63,1998.82 857.11,1988.16"/>
    </edge>
    <edge id=":10044736037_0" function="internal">
        <lane id=":10044736037_0_0" index="0" disallow="tram rail_urban rail rail_electric rail_fast ship container cable_car subway aircraft wheelchair scooter drone" speed="6.93" length="9.58" shape="810.10,1954.54 807.93,1952.89 805.78,1952.21 803.65,1952.50 801.55,1953.76"/>
    </edge>
    <edge id=":10044736037_1" function="internal">
        <lane id=":10044736037_1_0" index="0" disallow="tram rail_urban rail rail_electric rail_fast ship container cable_car subway aircraft wheelchair scooter drone" speed="7.83" length="14.60" shape="810.10,1954.54 807.63,1951.32 806.89,1948.16 807.88,1945.08 810.60,1942.06"/>
    </edge>
    <edge id=":10044736037_2" function="internal">
        <lane id=":10044736037_2_0" index="0" disallow="tram rail_urban rail rail_electric rail_fast ship container cable_car subway aircraft wheelchair scooter drone" speed="6.29" length="9.04" shape="812.65,1944.52 810.96,1946.39 810.35,1948.30 810.81,1950.25 812.34,1952.25"/>
    </edge>
    <edge id=":10044736037_3" function="internal">
        <lane id=":10044736037_3_0" index="0" disallow="tram rail_urban rail rail_electric rail_fast ship container cable_car subway aircraft wheelchair scooter drone" speed="8.33" length="14.43" shape="812.65,1944.52 801.55,1953.76"/>
    </edge>
    <edge id=":10044736037_4" function="internal">
        <lane id=":10044736037_4_0" index="0" disallow="tram rail_urban rail rail_electric rail_fast ship container cable_car subway aircraft wheelchair scooter drone" speed="8.33" length="14.44" shape="799.50,1951.30 810.60,1942.06"/>
    </edge>
    <edge id=":10044736037_5" function="internal">
        <lane id=":10044736037_5_0" index="0" disallow="tram rail_urban rail rail_electric rail_fast ship container cable_car subway aircraft wheelchair scooter drone" speed="8.36" length="14.36" shape="799.50,1951.30 802.71,1949.36 805.91,1948.87 809.12,1949.83 812.34,1952.25"/>
    </edge>
    <edge id=":10044736050_0" function="internal">
        <lane id=":10044736050_0_0" index="0" allow="pedestrian delivery bicycle" speed="5.02" length="5.02" shape="939.47,1849.17 938.30,1848.43 937.18,1848.26 936.12,1848.64 935.10,1849.57"/>
    </edge>
    <edge id=":10044736050_1" function="internal">
        <lane id=":10044736050_1_0" index="0" disallow="tram rail_urban rail rail_electric rail_fast ship container cable_car subway aircraft wheelchair scooter drone" speed="13.89" length="9.33" shape="939.47,1849.17 932.50,1842.97"/>
    </edge>
    <edge id=":10044736050_2" function="internal">
        <lane id=":10044736050_2_0" index="0" disallow="tram rail_urban rail rail_electric rail_fast ship container cable_car subway aircraft wheelchair scooter drone" speed="13.89" length="9.17" shape="934.69,1840.64 941.54,1846.73"/>
    </edge>
    <edge id=":10044736050_3" function="internal">
        <lane id=":10044736050_3_0" index="0" allow="pedestrian delivery bicycle" speed="7.00" length="3.02" shape="934.69,1840.64 936.35,1842.73 936.45,1843.07"/>
    </edge>
    <edge id=":10044736050_6" function="internal">
        <lane id=":10044736050_6_0" index="0" allow="pedestrian delivery bicycle" speed="7.00" length="7.03" shape="936.45,1843.07 936.97,1844.91 936.56,1847.19 935.10,1849.57"/>
    </edge>
    <edge id=":10044736050_4" function="internal">
        <lane id=":10044736050_4_0" index="0" allow="pedestrian delivery bicycle" speed="5.22" length="5.15" shape="932.62,1847.55 933.39,1846.31 933.62,1845.14 933.33,1844.03 932.50,1842.97"/>
    </edge>
    <edge id=":10044736050_5" function="internal">
        <lane id=":10044736050_5_0" index="0" allow="pedestrian delivery bicycle" speed="6.85" length="10.25" shape="932.62,1847.55 934.69,1845.64 936.87,1844.87 939.15,1845.23 941.54,1846.73"/>
    </edge>
    <edge id=":102750930_0" function="internal">
        <lane id=":102750930_0_0" index="0" disallow="tram rail_urban rail rail_electric rail_fast ship container cable_car subway aircraft wheelchair scooter drone" speed="16.67" length="9.42" shape="459.02,2030.08 455.11,2038.65"/>
    </edge>
    <edge id=":102750930_1" function="internal">
        <lane id=":102750930_1_0" index="0" allow="pedestrian delivery bicycle" speed="7.14" length="3.07" shape="459.02,2030.08 457.58,2032.27 457.20,2032.51"/>
    </edge>
    <edge id=":102750930_6" function="internal">
        <lane id=":102750930_6_0" index="0" allow="pedestrian delivery bicycle" speed="7.14" length="7.14" shape="457.20,2032.51 455.67,2033.53 453.29,2033.88 450.45,2033.30"/>
    </edge>
    <edge id=":102750930_2" function="internal">
        <lane id=":102750930_2_0" index="0" allow="pedestrian delivery bicycle" speed="5.40" length="5.43" shape="451.48,2030.27 453.05,2030.60 454.34,2030.46 455.36,2029.84 456.11,2028.74"/>
    </edge>
    <edge id=":102750930_3" function="internal">
        <lane id=":102750930_3_0" index="0" allow="pedestrian delivery bicycle" speed="6.79" length="10.67" shape="451.48,2030.27 454.13,2031.61 455.61,2033.46 455.94,2035.80 455.11,2038.65"/>
    </edge>
    <edge id=":102750930_4" function="internal">
        <lane id=":102750930_4_0" index="0" allow="pedestrian delivery bicycle" speed="4.94" length="5.12" shape="452.19,2037.32 452.59,2035.95 452.44,2034.83 451.72,2033.94 450.45,2033.30"/>
    </edge>
    <edge id=":102750930_5" function="internal">
        <lane id=":102750930_5_0" index="0" disallow="tram rail_urban rail rail_electric rail_fast ship container cable_car subway aircraft wheelchair scooter drone" speed="16.67" length="9.43" shape="452.19,2037.32 456.11,2028.74"/>
    </edge>
    <edge id=":102750981_0" function="internal">
        <lane id=":102750981_0_0" index="0" disallow="tram rail_urban rail rail_electric rail_fast ship container cable_car subway aircraft wheelchair scooter drone" speed="16.67" length="9.62" shape="498.21,1943.97 494.40,1952.80"/>
    </edge>
    <edge id=":102750981_1" function="internal">
        <lane id=":102750981_1_0" index="0" allow="pedestrian delivery bicycle" speed="6.95" length="3.33" shape="498.21,1943.97 496.81,1946.34 496.35,1946.68"/>
    </edge>
    <edge id=":102750981_6" function="internal">
        <lane id=":102750981_6_0" index="0" allow="pedestrian delivery bicycle" speed="6.95" length="6.96" shape="496.35,1946.68 494.95,1947.70 492.62,1948.06 489.82,1947.41"/>
    </edge>
    <edge id=":102750981_2" function="internal">
        <lane id=":102750981_2_0" index="0" allow="pedestrian delivery bicycle" speed="5.16" length="5.21" shape="490.96,1944.42 492.40,1944.76 493.60,1944.60 494.55,1943.94 495.24,1942.77"/>
    </edge>
    <edge id=":102750981_3" function="internal">
        <lane id=":102750981_3_0" index="0" allow="pedestrian delivery bicycle" speed="6.81" length="10.49" shape="490.96,1944.42 493.50,1945.82 494.92,1947.69 495.22,1950.01 494.40,1952.80"/>
    </edge>
    <edge id=":102750981_4" function="internal">
        <lane id=":102750981_4_0" index="0" allow="pedestrian delivery bicycle" speed="4.97" length="5.08" shape="491.49,1951.47 491.88,1950.12 491.74,1948.99 491.05,1948.09 489.82,1947.41"/>
    </edge>
    <edge id=":102750981_5" function="internal">
        <lane id=":102750981_5_0" index="0" disallow="tram rail_urban rail rail_electric rail_fast ship container cable_car subway aircraft wheelchair scooter drone" speed="16.67" length="9.48" shape="491.49,1951.47 495.24,1942.77"/>
    </edge>
    <edge id=":102751028_0" function="internal">
        <lane id=":102751028_0_0" index="0" disallow="tram rail_urban rail rail_electric rail_fast ship container cable_car subway aircraft wheelchair scooter drone" speed="16.67" length="9.12" shape="531.07,1863.55 527.38,1871.89"/>
    </edge>
    <edge id=":102751028_1" function="internal">
        <lane id=":102751028_1_0" index="0" allow="pedestrian delivery bicycle" speed="6.84" length="3.13" shape="531.07,1863.55 529.49,1865.92 529.25,1866.07"/>
    </edge>
    <edge id=":102751028_6" function="internal">
        <lane id=":102751028_6_0" index="0" allow="pedestrian delivery bicycle" speed="6.84" length="7.19" shape="529.25,1866.07 527.54,1867.18 525.23,1867.35 522.55,1866.41"/>
    </edge>
    <edge id=":102751028_2" function="internal">
        <lane id=":102751028_2_0" index="0" allow="pedestrian delivery bicycle" speed="5.01" length="5.04" shape="524.02,1863.57 525.33,1864.03 526.46,1863.95 527.41,1863.33 528.18,1862.18"/>
    </edge>
    <edge id=":102751028_3" function="internal">
        <lane id=":102751028_3_0" index="0" allow="pedestrian delivery bicycle" speed="7.06" length="10.03" shape="524.02,1863.57 526.31,1865.17 527.64,1867.09 527.99,1869.33 527.38,1871.89"/>
    </edge>
    <edge id=":102751028_4" function="internal">
        <lane id=":102751028_4_0" index="0" allow="pedestrian delivery bicycle" speed="5.29" length="5.22" shape="524.41,1870.69 524.71,1869.40 524.50,1868.25 523.78,1867.26 522.55,1866.41"/>
    </edge>
    <edge id=":102751028_5" function="internal">
        <lane id=":102751028_5_0" index="0" disallow="tram rail_urban rail rail_electric rail_fast ship container cable_car subway aircraft wheelchair scooter drone" speed="16.67" length="9.31" shape="524.41,1870.69 528.18,1862.18"/>
    </edge>
    <edge id=":102757766_0" function="internal">
        <lane id=":102757766_0_0" index="0" allow="pedestrian delivery bicycle" speed="6.95" length="10.35" shape="260.80,1452.39 258.58,1454.39 257.35,1456.12 256.38,1458.08 254.93,1460.76"/>
    </edge>
    <edge id=":102757766_1" function="internal">
        <lane id=":102757766_1_0" index="0" disallow="tram rail_urban rail rail_electric rail_fast ship container cable_car subway aircraft wheelchair scooter drone" speed="8.33" length="11.65" shape="260.80,1452.39 258.11,1454.07 255.67,1454.85 253.05,1455.23 249.82,1455.70"/>
    </edge>
    <edge id=":102757766_2" function="internal">
        <lane id=":102757766_2_0" index="0" disallow="tram rail_urban rail rail_electric rail_fast ship container cable_car subway aircraft wheelchair scooter drone" speed="8.33" length="10.19" shape="249.22,1452.56 252.24,1452.18 254.39,1452.01 256.37,1451.45 258.84,1449.86"/>
    </edge>
    <edge id=":102757766_3" function="internal">
        <lane id=":102757766_3_0" index="0" allow="pedestrian delivery bicycle" speed="6.79" length="5.26" shape="249.22,1452.56 254.09,1452.22 254.43,1452.38"/>
    </edge>
    <edge id=":102757766_6" function="internal">
        <lane id=":102757766_6_0" index="0" allow="pedestrian delivery bicycle" speed="6.79" length="10.22" shape="254.43,1452.38 256.66,1453.47 256.94,1456.32 254.93,1460.76"/>
    </edge>
    <edge id=":102757766_4" function="internal">
        <lane id=":102757766_4_0" index="0" allow="pedestrian delivery bicycle" speed="4.66" length="6.42" shape="252.19,1459.11 253.02,1457.26 252.91,1456.08 251.84,1455.56 249.82,1455.70"/>
    </edge>
    <edge id=":102757766_5" function="internal">
        <lane id=":102757766_5_0" index="0" allow="pedestrian delivery bicycle" speed="6.95" length="11.50" shape="252.19,1459.11 253.76,1456.29 255.00,1454.03 256.50,1452.00 258.84,1449.86"/>
    </edge>
    <edge id=":102758211_0" function="internal">
        <lane id=":102758211_0_0" index="0" disallow="tram rail_urban rail rail_electric rail_fast ship container cable_car subway aircraft wheelchair scooter drone" speed="8.33" length="13.60" shape="424.52,1585.02 420.99,1585.09 417.73,1585.27 414.47,1585.55 410.96,1585.97"/>
    </edge>
    <edge id=":102758211_1" function="internal">
        <lane id=":102758211_1_0" index="0" disallow="tram rail_urban rail rail_electric rail_fast ship container cable_car subway aircraft wheelchair scooter drone" speed="8.20" length="13.84" shape="424.52,1585.02 420.86,1584.52 418.11,1582.96 416.29,1580.34 415.38,1576.66"/>
    </edge>
    <edge id=":102758211_2" function="internal">
        <lane id=":102758211_2_0" index="0" disallow="tram rail_urban rail rail_electric rail_fast ship container cable_car subway aircraft wheelchair scooter drone" speed="6.74" length="9.03" shape="418.57,1576.33 419.16,1578.74 420.34,1580.47 422.12,1581.49 424.50,1581.82"/>
    </edge>
    <edge id=":102758211_3" function="internal">
        <lane id=":102758211_3_0" index="0" disallow="tram rail_urban rail rail_electric rail_fast ship container cable_car subway aircraft wheelchair scooter drone" speed="8.01" length="13.93" shape="418.57,1576.33 418.43,1580.13 417.11,1583.00 414.63,1584.95 410.96,1585.97"/>
    </edge>
    <edge id=":102758211_4" function="internal">
        <lane id=":102758211_4_0" index="0" disallow="tram rail_urban rail rail_electric rail_fast ship container cable_car subway aircraft wheelchair scooter drone" speed="6.51" length="8.86" shape="410.55,1582.80 412.88,1582.15 414.46,1580.91 415.30,1579.08 415.38,1576.66"/>
    </edge>
    <edge id=":102758211_5" function="internal">
        <lane id=":102758211_5_0" index="0" disallow="tram rail_urban rail rail_electric rail_fast ship container cable_car subway aircraft wheelchair scooter drone" speed="8.33" length="13.99" shape="410.55,1582.80 414.11,1582.38 417.51,1582.08 420.90,1581.90 424.50,1581.82"/>
    </edge>
    <edge id=":102758706_0" function="internal">
        <lane id=":102758706_0_0" index="0" disallow="tram rail_urban rail rail_electric rail_fast ship container cable_car subway aircraft wheelchair scooter drone" speed="8.33" length="12.99" shape="212.30,1646.43 210.21,1647.78 208.40,1650.00 206.85,1653.10 205.58,1657.08"/>
    </edge>
    <edge id=":102758706_1" function="internal">
        <lane id=":102758706_1_0" index="0" disallow="tram rail_urban rail rail_electric rail_fast ship container cable_car subway aircraft wheelchair scooter drone" speed="8.33" length="15.61" shape="212.30,1646.43 197.63,1651.77"/>
    </edge>
    <edge id=":102758706_2" function="internal">
        <lane id=":102758706_2_0" index="0" disallow="tram rail_urban rail rail_electric rail_fast ship container cable_car subway aircraft wheelchair scooter drone" speed="8.33" length="15.40" shape="196.61,1648.73 211.08,1643.47"/>
    </edge>
    <edge id=":102758706_3" function="internal">
        <lane id=":102758706_3_0" index="0" disallow="tram rail_urban rail rail_electric rail_fast ship container cable_car subway aircraft wheelchair scooter drone" speed="7.39" length="17.21" shape="196.61,1648.73 201.74,1647.71 204.95,1648.76 206.23,1651.88 205.58,1657.08"/>
    </edge>
    <edge id=":102758706_4" function="internal">
        <lane id=":102758706_4_0" index="0" disallow="tram rail_urban rail rail_electric rail_fast ship container cable_car subway aircraft wheelchair scooter drone" speed="5.61" length="9.31" shape="202.48,1656.28 202.83,1653.47 202.14,1651.78 200.41,1651.21 197.63,1651.77"/>
    </edge>
    <edge id=":102758706_5" function="internal">
        <lane id=":102758706_5_0" index="0" disallow="tram rail_urban rail rail_electric rail_fast ship container cable_car subway aircraft wheelchair scooter drone" speed="8.33" length="15.95" shape="202.48,1656.28 204.02,1651.59 205.97,1647.89 208.33,1645.18 211.08,1643.47"/>
    </edge>
    <edge id=":10754865919_0" function="internal">
        <lane id=":10754865919_0_0" index="0" allow="pedestrian delivery bicycle" speed="5.25" length="5.50" shape="1484.99,176.73 1483.62,176.61 1482.51,177.04 1481.65,178.02 1481.05,179.54"/>
    </edge>
    <edge id=":10754865919_1" function="internal">
        <lane id=":10754865919_1_0" index="0" disallow="tram rail_urban rail rail_electric rail_fast ship container cable_car subway aircraft wheelchair scooter drone" speed="13.89" length="9.07" shape="1484.99,176.73 1482.38,176.06 1480.58,175.68 1478.75,175.43 1476.07,175.19"/>
    </edge>
    <edge id=":10754865919_2" function="internal">
        <lane id=":10754865919_2_0" index="0" disallow="tram rail_urban rail rail_electric rail_fast ship container cable_car subway aircraft wheelchair scooter drone" speed="13.89" length="9.61" shape="1476.35,172.00 1479.19,172.26 1481.13,172.52 1483.04,172.93 1485.80,173.64"/>
    </edge>
    <edge id=":10754865919_3" function="internal">
        <lane id=":10754865919_3_0" index="0" allow="pedestrian delivery bicycle" speed="6.61" length="3.16" shape="1476.35,172.00 1479.10,172.69 1479.34,172.90"/>
    </edge>
    <edge id=":10754865919_6" function="internal">
        <lane id=":10754865919_6_0" index="0" allow="pedestrian delivery bicycle" speed="6.61" length="7.41" shape="1479.34,172.90 1480.80,174.17 1481.45,176.45 1481.05,179.54"/>
    </edge>
    <edge id=":10754865919_4" function="internal">
        <lane id=":10754865919_4_0" index="0" allow="pedestrian delivery bicycle" speed="4.69" length="4.74" shape="1477.96,178.72 1478.16,177.26 1477.92,176.19 1477.22,175.50 1476.07,175.19"/>
    </edge>
    <edge id=":10754865919_5" function="internal">
        <lane id=":10754865919_5_0" index="0" allow="pedestrian delivery bicycle" speed="7.02" length="10.64" shape="1477.96,178.72 1479.11,175.90 1480.80,174.11 1483.03,173.36 1485.80,173.64"/>
    </edge>
    <edge id=":1088923648_0" function="internal">
        <lane id=":1088923648_0_0" index="0" disallow="tram rail_urban rail rail_electric rail_fast ship container cable_car subway aircraft wheelchair scooter drone" speed="16.67" length="14.32" shape="1252.64,241.26 1246.16,254.02"/>
    </edge>
    <edge id=":1088923648_1" function="internal">
        <lane id=":1088923648_1_0" index="0" disallow="tram rail_urban rail rail_electric rail_fast ship container cable_car subway aircraft wheelchair scooter drone" speed="8.13" length="3.94" shape="1252.64,241.26 1250.40,244.36 1250.31,244.42"/>
    </edge>
    <edge id=":1088923648_6" function="internal">
        <lane id=":1088923648_6_0" index="0" disallow="tram rail_urban rail rail_electric rail_fast ship container cable_car subway aircraft wheelchair scooter drone" speed="8.13" length="10.27" shape="1250.31,244.42 1247.67,246.05 1244.43,246.32 1240.69,245.17"/>
    </edge>
    <edge id=":1088923648_2" function="internal">
        <lane id=":1088923648_2_0" index="0" disallow="tram rail_urban rail rail_electric rail_fast ship container cable_car subway aircraft wheelchair scooter drone" speed="6.66" length="9.20" shape="1242.04,242.27 1244.48,243.02 1246.58,242.86 1248.35,241.78 1249.80,239.78"/>
    </edge>
    <edge id=":1088923648_3" function="internal">
        <lane id=":1088923648_3_0" index="0" disallow="tram rail_urban rail rail_electric rail_fast ship container cable_car subway aircraft wheelchair scooter drone" speed="7.96" length="14.29" shape="1242.04,242.27 1245.33,244.41 1247.11,247.09 1247.39,250.29 1246.16,254.02"/>
    </edge>
    <edge id=":1088923648_4" function="internal">
        <lane id=":1088923648_4_0" index="0" disallow="tram rail_urban rail rail_electric rail_fast ship container cable_car subway aircraft wheelchair scooter drone" speed="6.45" length="9.03" shape="1243.29,252.60 1244.07,250.24 1243.89,248.22 1242.77,246.52 1240.69,245.17"/>
    </edge>
    <edge id=":1088923648_5" function="internal">
        <lane id=":1088923648_5_0" index="0" disallow="tram rail_urban rail rail_electric rail_fast ship container cable_car subway aircraft wheelchair scooter drone" speed="16.67" length="14.37" shape="1243.29,252.60 1249.80,239.78"/>
    </edge>
    <edge id=":1088924296_0" function="internal">
        <lane id=":1088924296_0_0" index="0" disallow="tram rail_urban rail rail_electric rail_fast ship container cable_car subway aircraft wheelchair scooter drone" speed="16.67" length="13.96" shape="821.13,987.21 816.90,1000.51"/>
    </edge>
    <edge id=":1088924296_1" function="internal">
        <lane id=":1088924296_1_0" index="0" disallow="tram rail_urban rail rail_electric rail_fast ship container cable_car subway aircraft wheelchair scooter drone" speed="8.01" length="3.81" shape="821.13,987.21 819.39,990.59"/>
    </edge>
    <edge id=":1088924296_6" function="internal">
        <lane id=":1088924296_6_0" index="0" disallow="tram rail_urban rail rail_electric rail_fast ship container cable_car subway aircraft wheelchair scooter drone" speed="8.01" length="10.13" shape="819.39,990.59 816.98,992.64 813.90,993.35 810.14,992.72"/>
    </edge>
    <edge id=":1088924296_2" function="internal">
        <lane id=":1088924296_2_0" index="0" disallow="tram rail_urban rail rail_electric rail_fast ship container cable_car subway aircraft wheelchair scooter drone" speed="6.51" length="8.87" shape="811.11,989.67 813.50,990.07 815.46,989.62 817.00,988.32 818.10,986.16"/>
    </edge>
    <edge id=":1088924296_3" function="internal">
        <lane id=":1088924296_3_0" index="0" disallow="tram rail_urban rail rail_electric rail_fast ship container cable_car subway aircraft wheelchair scooter drone" speed="8.01" length="13.94" shape="811.11,989.67 814.54,991.32 816.65,993.68 817.43,996.74 816.90,1000.51"/>
    </edge>
    <edge id=":1088924296_4" function="internal">
        <lane id=":1088924296_4_0" index="0" disallow="tram rail_urban rail rail_electric rail_fast ship container cable_car subway aircraft wheelchair scooter drone" speed="6.51" length="8.87" shape="813.83,999.62 814.17,997.22 813.67,995.27 812.33,993.77 810.14,992.72"/>
    </edge>
    <edge id=":1088924296_5" function="internal">
        <lane id=":1088924296_5_0" index="0" disallow="tram rail_urban rail rail_electric rail_fast ship container cable_car subway aircraft wheelchair scooter drone" speed="16.67" length="14.12" shape="813.83,999.62 818.10,986.16"/>
    </edge>
    <edge id=":1088924731_0" function="internal">
        <lane id=":1088924731_0_0" index="0" disallow="tram rail_urban rail rail_electric rail_fast ship container cable_car subway aircraft wheelchair scooter drone" speed="16.67" length="13.52" shape="832.67,954.84 831.15,958.01 829.89,961.00 828.80,964.05 827.76,967.41"/>
    </edge>
    <edge id=":1088924731_1" function="internal">
        <lane id=":1088924731_1_0" index="0" disallow="tram rail_urban rail rail_electric rail_fast ship container cable_car subway aircraft wheelchair scooter drone" speed="8.64" length="3.60" shape="832.67,954.84 830.59,957.77"/>
    </edge>
    <edge id=":1088924731_6" function="internal">
        <lane id=":1088924731_6_0" index="0" disallow="tram rail_urban rail rail_electric rail_fast ship container cable_car subway aircraft wheelchair scooter drone" speed="8.64" length="10.41" shape="830.59,957.77 827.92,959.55 824.66,960.18 820.82,959.66"/>
    </edge>
    <edge id=":1088924731_2" function="internal">
        <lane id=":1088924731_2_0" index="0" disallow="tram rail_urban rail rail_electric rail_fast ship container cable_car subway aircraft wheelchair scooter drone" speed="7.25" length="9.61" shape="821.64,956.57 824.32,956.94 826.58,956.54 828.41,955.35 829.82,953.39"/>
    </edge>
    <edge id=":1088924731_3" function="internal">
        <lane id=":1088924731_3_0" index="0" disallow="tram rail_urban rail rail_electric rail_fast ship container cable_car subway aircraft wheelchair scooter drone" speed="7.96" length="14.28" shape="821.64,956.57 825.25,958.10 827.48,960.42 828.31,963.53 827.76,967.41"/>
    </edge>
    <edge id=":1088924731_4" function="internal">
        <lane id=":1088924731_4_0" index="0" disallow="tram rail_urban rail rail_electric rail_fast ship container cable_car subway aircraft wheelchair scooter drone" speed="6.46" length="9.03" shape="824.69,966.52 825.04,964.06 824.51,962.10 823.10,960.63 820.82,959.66"/>
    </edge>
    <edge id=":1088924731_5" function="internal">
        <lane id=":1088924731_5_0" index="0" disallow="tram rail_urban rail rail_electric rail_fast ship container cable_car subway aircraft wheelchair scooter drone" speed="16.67" length="14.12" shape="824.69,966.52 825.76,963.07 826.93,959.82 828.26,956.64 829.82,953.39"/>
    </edge>
    <edge id=":11575799240_0" function="internal">
        <lane id=":11575799240_0_0" index="0" allow="pedestrian delivery bicycle" speed="5.56" length="7.05" shape="1518.29,308.52 1517.23,309.25 1516.44,310.52 1515.92,312.33 1515.68,314.70"/>
    </edge>
    <edge id=":11575799240_1" function="internal">
        <lane id=":11575799240_1_0" index="0" allow="pedestrian delivery bicycle" speed="5.56" length="9.95" shape="1518.29,308.52 1508.97,312.03"/>
    </edge>
    <edge id=":11575799240_2" function="internal">
        <lane id=":11575799240_2_0" index="0" allow="pedestrian delivery bicycle" speed="5.56" length="9.95" shape="1507.85,309.04 1517.16,305.53"/>
    </edge>
    <edge id=":11575799240_3" function="internal">