<?xml version='1.0' encoding='UTF-8'?>
<routes xmlns:xsi="http://www.w3.org/2001/XMLSchema-instance" xsi:noNamespaceSchemaLocation="http://sumo.dlr.de/xsd/routes_file.xsd">
    <vType id="car" vClass="passenger" maxSpeed="41.67" accel="2.6" decel="4.5" sigma="0.5" length="4.5" minGap="2.5" width="1.8" guiShape="passenger" color="0.2,0.6,1.0" speedFactor="normc(1.0,0.10,0.5,1.5)" impatience="0.7" jmIgnoreFoeProb="0.15" jmIgnoreFoeSpeed="3.0" jmTimegapMinor="1.0" tau="1.0" />
    <vType id="bus" vClass="bus" maxSpeed="41.67" accel="1.2" decel="4.0" sigma="0.5" length="12.0" minGap="3.0" width="2.5" guiShape="bus" color="1.0,0.6,0.0" speedFactor="normc(0.95,0.08,0.5,1.3)" impatience="0.7" jmIgnoreFoeProb="0.15" jmIgnoreFoeSpeed="3.0" jmTimegapMinor="1.0" tau="1.0" />
    <vType id="lorry" vClass="truck" maxSpeed="41.67" accel="1.0" decel="4.0" sigma="0.5" length="9.0" minGap="3.0" width="2.4" guiShape="truck" color="0.5,0.3,0.1" speedFactor="normc(0.92,0.08,0.5,1.3)" impatience="0.7" jmIgnoreFoeProb="0.15" jmIgnoreFoeSpeed="3.0" jmTimegapMinor="1.0" tau="1.0" />
    <vType id="van" vClass="delivery" maxSpeed="41.67" accel="2.0" decel="4.5" sigma="0.5" length="5.5" minGap="2.5" width="2.0" guiShape="delivery" color="0.7,0.7,0.7" speedFactor="normc(1.0,0.10,0.5,1.5)" impatience="0.7" jmIgnoreFoeProb="0.15" jmIgnoreFoeSpeed="3.0" jmTimegapMinor="1.0" tau="1.0" />
    <vType id="truck" vClass="truck" maxSpeed="41.67" accel="0.8" decel="3.5" sigma="0.5" length="16.5" minGap="3.5" width="2.5" guiShape="truck/semitrailer" color="0.3,0.3,0.3" speedFactor="normc(0.90,0.08,0.5,1.2)" impatience="0.7" jmIgnoreFoeProb="0.15" jmIgnoreFoeSpeed="3.0" jmTimegapMinor="1.0" tau="1.0" />
    <vehicle id="veh0" type="car" depart="0.00">
        <route edges="-374249101#2 -374249101#1 -374249101#0 -6743656#13 -6743656#11 -6743656#9 -6743656#8 -6743656#7 -6743656#6 -6743656#5 -6743656#4 -6743656#3 -6743656#2 -6743656#1 -6743656#0 -6094840#4 -6094840#3 -6094840#2 -6094840#1 -6094840#0 15390366 -8571341#4 -8571341#3 -8571341#2 -8571341#1 -8571341#0 23418540#0 23418540#1 556368820 23418538#1 -15390370#5 -15390370#4 -108209928#0 108209930#2 -536863283 108243887#1 108242702#0" />
    </vehicle>
    <vehicle id="veh1" type="bus" depart="0.00">
        <route edges="-374249101#2 -374249101#1 -374249101#0 -6743656#13 -6743656#11 -6743656#9 -6743656#8 -6743656#7 -6743656#6 -6743656#5 -6743656#4 -6743656#3 -6743656#2 -6743656#1 -6743656#0 -6094840#4 -6094840#3 -6094840#2 -6094840#1 -6094840#0 15390366 -8571341#4 -8571341#3 -8571341#2 -8571341#1 -8571341#0 23418540#0 23418540#1 556368820 23418538#1 -15390370#5 -15390370#4 -108209928#0 108209930#2 -536863283 108243887#1 108242702#0" />
    </vehicle>
    <vehicle id="veh2" type="lorry" depart="0.00">
        <route edges="-51263358 108242702#1 108242702#2 108242702#3 108242702#4 108242702#5 -1494760251#3 -1494760251#2 -1494760251#1 -1494760251#0 -548542956#8 -548542956#7 -548542956#6 -548542956#5 -548542956#4 -548542956#3 -548542956#1 -548542956#0 -13881187#8 -13881187#7 -13881187#6 -13881187#5 -13881187#4 -13881187#3 -13881187#2 -13881187#1 -8013925#4 -8013925#3 -8013925#2" />
    </vehicle>
    <vehicle id="veh3" type="van" depart="0.00">
        <route edges="-374249101#1 -374249101#0 6743656#14 6743656#15 -374249099#2 -374249099#1 368796142#2 6100260#6 108208918 -4860438#5 -4860438#4 -4860438#3 -4860438#2 -4860438#0 -545693552#5 -545693552#4 -545693552#3 -545693552#2 -108272782#5 -108272782#4 -108272782#3 -108272782#2 108272785#0 108272788" />
    </vehicle>
    <vehicle id="veh4" type="truck" depart="0.00">
        <route edges="-51263358 108242702#1 108242702#2 108242702#3 108242702#4 108242702#5 -1494760251#3 -1494760251#2 -1494760251#1 -1494760251#0 -548542956#8 -548542956#7 -548542956#6 -548542956#5 -548542956#4 -548542956#3 -548542956#1 -548542956#0 -13881187#8 -13881187#7 -13881187#6 -13881187#5 -13881187#4 -13881187#3 -13881187#2 -13881187#1 -8013925#4 -8013925#3 -8013925#2" />
    </vehicle>
    <vehicle id="veh5" type="car" depart="0.30">
        <route edges="495414217#1 15390370#3 15390370#4 15390370#5 -23418538#1 -23418538#0 -23418540#1 -23418540#0 8625182#0 -23418534#1 -23418534#0 -374247431#1 108208911 108208910#1 108208910#2 108208910#3 374249092#0 374249093" />
    </vehicle>
    <vehicle id="veh6" type="car" depart="0.60">
        <route edges="-13881187#5 -13881187#4 -13881187#3 -13881187#2 -13881187#1 -13881187#0 545693552#0 545693552#2 545693552#3 545693552#4 545693552#5 4860438#0 4860438#2 4860438#3 4860438#4 4860438#5 -108208918 -6100260#6 -368796142#2 374249099#0 374249099#2 -6743656#15" />
    </vehicle>
    <vehicle id="veh7" type="car" depart="0.90">
        <route edges="-23418543#2 -23418543#1 -23418543#0 -19328195#6 -19328195#5 -19328195#4 -19328195#3 -19328195#2 -19328195#1 -19328195#0 -19328193 6094840#0 6094840#1 6094840#2 6094840#3 6094840#4 6743656#0 6743656#1 6743656#2 6743656#3 -374254551" />
    </vehicle>
    <vehicle id="veh8" type="car" depart="1.20">
        <route edges="-1494760251#1 -1494760251#0 -548542956#8 -548542956#7 -548542956#6 -548542956#5 -548542956#4 -548542956#3 -548542956#1 -548542956#0 -13881187#8 -13881187#7 -13881187#6 -13881187#5 -13881187#4 -13881187#3 -13881187#2 -13881187#1 -13881187#0 545693552#0 545693552#2 545693552#3 545693552#4 545693552#5 4860438#0 4860438#2 4860438#3 4860438#4 4860438#5 -108208918 -6100260#6 -368796142#2 374249099#0 374249099#2 -6743656#15 -6743656#14 -6743656#13 -6743656#11 -6743656#9 -6743656#8 -6743656#7 -6743656#6 -148652003#2" />
    </vehicle>
    <vehicle id="veh9" type="bus" depart="1.20">
        <route edges="495414217#1 15390370#3 15390370#4 15390370#5 -23418538#1 -23418538#0 -23418540#1 -23418540#0 8625182#0 -23418534#1 -23418534#0 -374247431#1 108208911 108208910#1 108208910#2 108208910#3 374249092#0 374249093" />
    </vehicle>
    <vehicle id="veh10" type="lorry" depart="1.20">
        <route edges="-5914884#2 -5914884#1 -5914884#0 -6094840#1 -6094840#0 15390366 -8571341#4 -8571341#3 -8571341#2 -8571341#1 -8571341#0 23418540#0 23418540#1 556368820 23418538#1 15390370#6 -51149925#2 -51149925#1 -51149925#0 -548542956#8 -548542956#7" />
    </vehicle>
    <vehicle id="veh11" type="van" depart="1.20">
        <route edges="-374254549 -368794775#1 8625179#1 8625179#2 -23417672#2 -23417672#1 -23417672#0 4860438#17 4860438#18 4860438#19 4860438#20 4860438#21 4860438#22 4860438#23 4860438#24 4860438#25 4860438#26 15390366 19328195#0 19328195#1 19328195#2 19328195#3 19328195#4 19328195#5 19328195#6 23418543#0 -495414221 -23418543#2 -23418543#1 -23418543#0 -19328195#6" />
    </vehicle>
    <vehicle id="veh12" type="truck" depart="1.20">
        <route edges="-5914884#2 -5914884#1 -5914884#0 -6094840#1 -6094840#0 15390366 -8571341#4 -8571341#3 -8571341#2 -8571341#1 -8571341#0 23418540#0 23418540#1 556368820 23418538#1 15390370#6 -51149925#2 -51149925#1 -51149925#0 -548542956#8 -548542956#7" />
    </vehicle>
    <vehicle id="veh13" type="car" depart="1.50">
        <route edges="4860428#2 4860428#3 -6743656#8 -6743656#7 -6743656#6 -6743656#5 -6743656#4 -6743656#3 -6743656#2 -6743656#1 -6743656#0 -6094840#4 -6094840#3 -23592598#2 11528608#0 11528608#1 11528608#2 11528635 23855289#4" />
    </vehicle>
    <vehicle id="veh14" type="car" depart="1.80">
        <route edges="108272782#0 108272782#2 108272782#3 108272782#4 108272782#5 545693552#2 545693552#3 545693552#4 545693552#5 4860438#0 4860438#2 4860438#3 4860438#4 4860438#5 4860438#7 4860438#9 4860438#10 4860438#11 4860438#12 4860438#13 4860438#15 4860438#16 4860438#17 4860438#18 4860438#19 4860438#20 4860438#21 4860438#22 4860438#23 4860438#24 4860438#25 4860438#26 -23855289#7 -23855289#6 -23855289#4 -11528635 -11528608#2 -11528608#1 -11528608#0" />
    </vehicle>
    <vehicle id="veh15" type="car" depart="2.10">
        <route edges="13881187#2 13881187#3 13881187#4 374247437#0 556975357 374249088#1 -8013925#1 -8013925#0 4860438#7 4860438#9 4860438#10 4860438#11 4860438#12 4860438#13 4860438#15 4860438#16 4860438#17 4860438#18 4860438#19 4860438#20 4860438#21 4860438#22 4860438#23 4860438#24 4860438#25 4860438#26 15390366 19328195#0 19328195#1 19328195#2 -495414196#2 -495414196#1 -495414197#0 -495414199#0" />
    </vehicle>
    <vehicle id="veh16" type="car" depart="2.40">
        <route edges="-1429007178 374247423#1 597896253#6 597896253#8 545693552#0 545693552#2 545693552#3 545693552#4 545693552#5 4860438#0 4860438#2 4860438#3 4860438#4 4860438#5 4860438#7 4860438#9 4860438#10 4860438#11 4860438#12 4860438#13 4860438#15 4860438#16 4860438#17 4860438#18 4860438#19 4860438#20 4860438#21 4860438#22 4860438#23 -23417665#5 -23417665#4 -23417665#3 -23417665#2 23417666 -6094840#0" />
    </vehicle>
    <vehicle id="veh17" type="bus" depart="2.40">
        <route edges="-13881187#5 -13881187#4 -13881187#3 -13881187#2 -13881187#1 -13881187#0 545693552#0 545693552#2 545693552#3 545693552#4 545693552#5 4860438#0 4860438#2 4860438#3 4860438#4 4860438#5 -108208918 -6100260#6 -368796142#2 374249099#0 374249099#2 -6743656#15" />
    </vehicle>
    <vehicle id="veh18" type="lorry" depart="2.40">
        <route edges="-108243887#1 536863283 -108209930#2 108209928#0 15390370#4 15390370#5 -23418538#1 -23418538#0 -23418540#1 -23418540#0 8571341#0 8571341#1 8571341#2 8571341#3 8571341#4 -19328193 6094840#0 6094840#1 6094840#2 6094840#3 6094840#4 6743656#0 6743656#1 6743656#2 6743656#3 6743656#4 6743656#5 6743656#6 6743656#7 6743656#8 6743656#9 6743656#11 374254546 -6743656#9 -6743656#8" />
    </vehicle>
    <vehicle id="veh19" type="van" depart="2.40">
        <route edges="-108242702#3 23185037#0 23185037#2 -23915154#1 -23915154#0 -23418538#1 -23418538#0 -23418540#1 -23418540#0 8571341#0 8571341#1 8571341#2 8571341#3 8571341#4 -19328193 6094840#0 6094840#1 6094840#2 -23592598#2 -23592598#1 23575436" />
    </vehicle>
    <vehicle id="veh20" type="truck" depart="2.40">
        <route edges="-108243887#1 536863283 -108209930#2 108209928#0 15390370#4 15390370#5 -23418538#1 -23418538#0 -23418540#1 -23418540#0 8571341#0 8571341#1 8571341#2 8571341#3 8571341#4 -19328193 6094840#0 6094840#1 6094840#2 6094840#3 6094840#4 6743656#0 6743656#1 6743656#2 6743656#3 6743656#4 6743656#5 6743656#6 6743656#7 6743656#8 6743656#9 6743656#11 374254546 -6743656#9 -6743656#8" />
    </vehicle>
    <vehicle id="veh21" type="car" depart="2.70">
        <route edges="-108209932#0 -23915154#0 -23418538#1 -23418538#0 -23418540#1 -23418540#0 8571341#0 8571341#1 8571341#2 8571341#3 8571341#4 -19328193 -23855289#7 -23855289#6 -23855289#4 -11528635 -11528608#2 -11528608#1 547139152" />
    </vehicle>
    <vehicle id="veh22" type="car" depart="3.00">
        <route edges="186444556#0 186444556#2 -496810973 -6100260#7 -6100260#6 -6100260#5 -6100260#4 -6100260#3 -6100260#1 -6100260#0 4860438#15 4860438#16 4860438#17 4860438#18 4860438#19 4860438#20 4860438#21 4860438#22 4860438#23 4860438#24 4860438#25 4860438#26 -23855289#7 -23855289#6 1276414374" />
    </vehicle>
    <vehicle id="veh23" type="car" depart="3.30">
        <route edges="-374254559 -374249099#1 368796142#2 -6100260#5 -6100260#4 -6100260#3 -6100260#1 -6100260#0 4860438#15 4860438#16 4860438#17 4860438#18 4860438#19 4860438#20 4860438#21 4860438#22 5914873#0 5914873#2 5914873#3 5914873#4 5914873#6 23418540#0 23418540#1 556368820 23418538#1 -15390370#5 -15390370#4 108209928#1 108209928#2 108209928#3 -495414220#0" />
    </vehicle>
    <vehicle id="veh24" type="car" depart="3.60">
        <route edges="-1525386236 545693552#4 545693552#5 4860438#0 4860438#2 4860438#3 4860438#4 4860438#5 4860438#7 4860438#9 4860438#10 4860438#11 4860438#12 4860438#13 4860438#15 4860438#16 4860438#17 4860438#18 4860438#19 4860438#20 4860438#21 4860438#22 5914873#0 5914873#2 5914873#3 5914873#4 5914873#6 23418540#0 23418540#1 556368820 23418538#1" />
    </vehicle>
    <vehicle id="veh25" type="bus" depart="3.60">
        <route edges="-23418543#2 -23418543#1 -23418543#0 -19328195#6 -19328195#5 -19328195#4 -19328195#3 -19328195#2 -19328195#1 -19328195#0 -19328193 6094840#0 6094840#1 6094840#2 6094840#3 6094840#4 6743656#0 6743656#1 6743656#2 6743656#3 -374254551" />
    </vehicle>
    <vehicle id="veh26" type="lorry" depart="3.60">
        <route edges="6743656#2 556388609 8625179#0 8625179#1 8625179#2 -23417672#2 -23417672#1 -23417672#0 4860438#17 4860438#18 4860438#19 4860438#20 4860438#21 4860438#22 5914873#0 5914873#2 5914873#3 5914873#4 5914873#6 23418540#0 23418540#1 556368820 23418538#1 556902783 108209932#0 -108209931" />
    </vehicle>
    <vehicle id="veh27" type="van" depart="3.60">
        <route edges="23855289#5 23855289#7 -4860438#26 -4860438#25 -4860438#24 -4860438#23 -4860438#22 -4860438#21 -4860438#20 -4860438#19 -4860438#18 -4860438#17 -4860438#16 -4860438#15 -4860438#13 -4860438#12 -4860438#11 -4860438#10 -4860438#9 -4860438#7 -4860438#5 -4860438#4 -4860438#3 -4860438#2 -4860438#0 -545693552#5 -545693552#4 -545693552#3 -545693552#2 -545693552#0 13881187#0 13881187#1 13881187#2 13881187#3 13881187#4 13881187#5 13881187#6 13881187#7 13881187#8 374247424#0 -374247427#1" />
    </vehicle>
    <vehicle id="veh28" type="truck" depart="3.60">
        <route edges="6743656#2 556388609 8625179#0 8625179#1 8625179#2 -23417672#2 -23417672#1 -23417672#0 4860438#17 4860438#18 4860438#19 4860438#20 4860438#21 4860438#22 5914873#0 5914873#2 5914873#3 5914873#4 5914873#6 23418540#0 23418540#1 556368820 23418538#1 556902783 108209932#0 -108209931" />
    </vehicle>
    <vehicle id="veh29" type="car" depart="3.90">
        <route edges="1494760251#2 1494760251#3 -108242702#5 -108242702#4 -108242702#3 23185037#0 23185037#2 -23915154#1 -23915154#0 -23418538#1 -23418538#0 -23418540#1 -23418540#0 -556900441 -5914873#4 -5914873#3 -5914873#2 -5914873#0 -4860438#22 -5914884#6 -5914884#5 -5914884#4 -5914884#3 -5914884#2 1245196885" />
    </vehicle>
    <vehicle id="veh30" type="car" depart="4.20">
        <route edges="19328195#1 19328195#2 19328195#3 19328195#4 19328195#5 19328195#6 23418543#0 23418543#1 23418544 -23418536#0 -23418540#2 556368820 23418538#1 556902783 23915154#1 -23185037#2 -23185037#0 108242702#3 108242702#4 108242702#5" />
    </vehicle>
    <vehicle id="veh31" type="car" depart="4.50">
        <route edges="-1377451100 -13881187#2 -13881187#1 -13881187#0 545693552#0 545693552#2 545693552#3 545693552#4 545693552#5 4860438#0 4860438#2 4860438#3 4860438#4 4860438#5 4860438#7 4860438#9 4860438#10 4860438#11 4860438#12 4860438#13 4860438#15 4860438#16 4860438#17 4860438#18 4860438#19 4860438#20 4860438#21 4860438#22 4860438#23 4860438#24 4860438#25 4860438#26 6094840#0 -23417666" />
    </vehicle>
    <vehicle id="veh32" type="car" depart="4.80">
        <route edges="-13881187#2 -13881187#1 -13881187#0 545693552#0 545693552#2 545693552#3 545693552#4 545693552#5 4860438#0 4860438#2 4860438#3 4860438#4 4860438#5 4860438#7 4860438#9 4860438#10 4860438#11 4860438#12 4860438#13 4860438#15 4860438#16 4860438#17 4860438#18 4860438#19 4860438#20 4860438#21 -5914884#6 -5914884#5 -5914884#4 -5914884#3 23417665#0" />
    </vehicle>
    <vehicle id="veh33" type="bus" depart="4.80">
        <route edges="-1494760251#1 -1494760251#0 -548542956#8 -548542956#7 -548542956#6 -548542956#5 -548542956#4 -548542956#3 -548542956#1 -548542956#0 -13881187#8 -13881187#7 -13881187#6 -13881187#5 -13881187#4 -13881187#3 -13881187#2 -13881187#1 -13881187#0 545693552#0 545693552#2 545693552#3 545693552#4 545693552#5 4860438#0 4860438#2 4860438#3 4860438#4 4860438#5 -108208918 -6100260#6 -368796142#2 374249099#0 374249099#2 -6743656#15 -6743656#14 -6743656#13 -6743656#11 -6743656#9 -6743656#8 -6743656#7 -6743656#6 -148652003#2" />
    </vehicle>
    <vehicle id="veh34" type="lorry" depart="4.80">
        <route edges="108272789 108272790#1 -108272785#0 108272782#2 108272782#3 108272782#4 108272782#5 545693552#2 545693552#3 545693552#4 545693552#5 4860438#0 4860438#2 4860438#3 4860438#4 4860438#5 4860438#7 4860438#9 4860438#10 4860438#11 4860438#12 4860438#13 4860438#15 4860438#16 4860438#17 4860438#18 4860438#19 4860438#20 4860438#21 4860438#22 4860438#23 4860438#24 4860438#25 4860438#26 -23855289#7 -23855289#6 -23855289#4 -11528635 11528612#0 15242152#0" />
    </vehicle>
    <vehicle id="veh35" type="van" depart="4.80">
        <route edges="495414196#2 -19328195#2 -19328195#1 -19328195#0 -19328193 6094840#0 6094840#1 6094840#2 6094840#3 6094840#4 6743656#0 6743656#1 6743656#2 6743656#3 6743656#4 6743656#5 6743656#6 6743656#7 6743656#8 6743656#9 6743656#11 6743656#13 374249101#0 374249101#1" />
    </vehicle>
    <vehicle id="veh36" type="truck" depart="4.80">
        <route edges="108272789 108272790#1 -108272785#0 108272782#2 108272782#3 108272782#4 108272782#5 545693552#2 545693552#3 545693552#4 545693552#5 4860438#0 4860438#2 4860438#3 4860438#4 4860438#5 4860438#7 4860438#9 4860438#10 4860438#11 4860438#12 4860438#13 4860438#15 4860438#16 4860438#17 4860438#18 4860438#19 4860438#20 4860438#21 4860438#22 4860438#23 4860438#24 4860438#25 4860438#26 -23855289#7 -23855289#6 -23855289#4 -11528635 11528612#0 15242152#0" />
    </vehicle>
    <vehicle id="veh37" type="car" depart="5.10">
        <route edges="13881187#0 -8013925#4 -8013925#3 -496810972 4860438#4 4860438#5 4860438#7 4860438#9 4860438#10 4860438#11 4860438#12 4860438#13 4860438#15 4860438#16 4860438#17 4860438#18 4860438#19 4860438#20 4860438#21 -5914884#6 -5914884#5 -5914884#4 -5914884#3 -5914884#2 -5914884#1" />
    </vehicle>
    <vehicle id="veh38" type="car" depart="5.40">
        <route edges="15390370#2 15390370#3 15390370#4 15390370#5 -23418538#1 -23418538#0 -23418540#1 -23418540#0 -556900441 -5914873#4 -5914873#3 -5914873#2 -5914873#0 -4860438#22 -4860438#21 -4860438#20 -4860438#19 -4860438#18 -4860438#17 -4860438#16 -4860438#15 6100260#0 6100260#1 6100260#3 6100260#4 374249095#0 374249095#1 536308988#1" />
    </vehicle>
    <vehicle id="veh39" type="car" depart="5.70">
        <route edges="-374247424#0 -13881187#8 -13881187#7 -13881187#6 -13881187#5 -13881187#4 -13881187#3 -13881187#2 -13881187#1 -13881187#0 545693552#0 545693552#2 545693552#3 545693552#4 545693552#5 4860438#0 4860438#2 4860438#3 4860438#4 4860438#5 -108208918 -6100260#6 -368796142#2 374249099#0 374249099#2 -6743656#15 -6743656#14" />
    </vehicle>
    <vehicle id="veh40" type="car" depart="6.00">
        <route edges="108243887#0 108243887#1 108242702#0 108242702#1 108242702#2 108242702#3 108242702#4 108242702#5 -1494760251#3 -1494760251#2 -1494760251#1 -1494760251#0 -548542956#8 -548542956#7 -548542956#6 -548542956#5 -548542956#4 -548542956#3 -548542956#1 -548542956#0 -13881187#8 -13881187#7 -13881187#6 -13881187#5 -13881187#4 -13881187#3 -13881187#2 -13881187#1 -13881187#0 545693552#0 545693552#2 545693552#3 545693552#4 545693552#5 4860438#0 4860438#2 4860438#3 4860438#4 4860438#5 4860438#7 4860438#9" />
    </vehicle>
    <vehicle id="veh41" type="bus" depart="6.00">
        <route edges="4860428#2 4860428#3 -6743656#8 -6743656#7 -6743656#6 -6743656#5 -6743656#4 -6743656#3 -6743656#2 -6743656#1 -6743656#0 -6094840#4 -6094840#3 -23592598#2 11528608#0 11528608#1 11528608#2 11528635 23855289#4" />
    </vehicle>
    <vehicle id="veh42" type="lorry" depart="6.00">
        <route edges="495414196#2 -19328195#2 -19328195#1 -19328195#0 -19328193 -4860438#26 -4860438#25 -4860438#24 -4860438#23 -4860438#22 -4860438#21 -4860438#20 -4860438#19 -4860438#18 -4860438#17 -4860438#16 -4860438#15 -4860438#13 -4860438#12 -4860438#11 -4860438#10 -4860438#9 -4860438#7 -4860438#5 -4860438#4 -4860438#3 -4860438#2 -4860438#0 -545693552#5 -545693552#4 -545693552#3 -545693552#2 -545693552#0 13881187#0 13881187#1 13881187#2 13881187#3 1428967154#0 1428967154#2 374247424#6 597896253#2 597896253#3" />
    </vehicle>
    <vehicle id="veh43" type="van" depart="6.00">
        <route edges="-13881187#2 -13881187#1 -13881187#0 545693552#0 545693552#2 545693552#3 545693552#4 545693552#5 4860438#0 4860438#2 4860438#3 4860438#4 4860438#5 -108208918 -6100260#6 -368796142#2 374249099#0 374249099#2 -6743656#15 -6743656#14 -6743656#13 -6743656#11 -6743656#9" />
    </vehicle>
    <vehicle id="veh44" type="truck" depart="6.00">
        <route edges="495414196#2 -19328195#2 -19328195#1 -19328195#0 -19328193 -4860438#26 -4860438#25 -4860438#24 -4860438#23 -4860438#22 -4860438#21 -4860438#20 -4860438#19 -4860438#18 -4860438#17 -4860438#16 -4860438#15 -4860438#13 -4860438#12 -4860438#11 -4860438#10 -4860438#9 -4860438#7 -4860438#5 -4860438#4 -4860438#3 -4860438#2 -4860438#0 -545693552#5 -545693552#4 -545693552#3 -545693552#2 -545693552#0 13881187#0 13881187#1 13881187#2 13881187#3 1428967154#0 1428967154#2 374247424#6 597896253#2 597896253#3" />
    </vehicle>
    <vehicle id="veh45" type="car" depart="6.30">
        <route edges="-548542956#1 -548542956#0 -13881187#8 -13881187#7 -13881187#6 -13881187#5 -13881187#4 -13881187#3 -13881187#2 -13881187#1 -13881187#0 545693552#0 545693552#2 545693552#3 545693552#4 545693552#5 4860438#0 4860438#2 4860438#3 4860438#4 4860438#5 4860438#7 4860438#9 4860438#10 4860438#11 4860438#12 4860438#13 4860438#15 4860438#16 4860438#17 4860438#18 4860438#19 4860438#20 4860438#21 4860438#22 4860438#23 4860438#24 4860438#25 4860438#26 15390366 19328195#0 19328195#1 19328195#2 19328195#3 19328195#4 19328195#5 19328195#6" />
    </vehicle>
    <vehicle id="veh46" type="car" depart="6.60">
        <route edges="-15242152#1 -15242152#0 -11528612#0 11528635 23855289#4 23855289#5 23855289#7 -4860438#26 -4860438#25 -4860438#24 -4860438#23 -4860438#22 -4860438#21 -4860438#20 -4860438#19 -4860438#18 -4860438#17 23417672#0 23417672#1 23417672#2 -8625179#2 -8625179#1 368794775#1 368794775#2" />
    </vehicle>
    <vehicle id="veh47" type="car" depart="6.90">
        <route edges="108209930#0 108209928#0 15390370#4 15390370#5 -23418538#1 -23418538#0 -23418540#1 -23418540#0 8571341#0 8571341#1 8571341#2 8571341#3 8571341#4 -19328193 6094840#0 6094840#1" />
    </vehicle>
    <vehicle id="veh48" type="car" depart="7.20">
        <route edges="-537559372 -23418538#0 -23418540#1 -23418540#0 -556900441 -5914873#4 -5914873#3 -5914873#2 -5914873#0 -4860438#22 -4860438#21 -4860438#20 -4860438#19 -4860438#18 -4860438#17 -4860438#16 -4860438#15 -4860438#13 -4860438#12 -4860438#11 -4860438#10 -4860438#9 -108208915 -108208917#0" />
    </vehicle>
    <vehicle id="veh49" type="bus" depart="7.20">
        <route edges="108272782#0 108272782#2 108272782#3 108272782#4 108272782#5 545693552#2 545693552#3 545693552#4 545693552#5 4860438#0 4860438#2 4860438#3 4860438#4 4860438#5 4860438#7 4860438#9 4860438#10 4860438#11 4860438#12 4860438#13 4860438#15 4860438#16 4860438#17 4860438#18 4860438#19 4860438#20 4860438#21 4860438#22 4860438#23 4860438#24 4860438#25 4860438#26 -23855289#7 -23855289#6 -23855289#4 -11528635 -11528608#2 -11528608#1 -11528608#0" />
    </vehicle>
    <vehicle id="veh50" type="lorry" depart="7.20">
        <route edges="-108242702#1 -23185037#4 -23185037#3 -23185037#2 -23185037#0 108242702#3 108242702#4 108242702#5 -1494760251#3 -1494760251#2 -1494760251#1 -1494760251#0 -548542956#8 -548542956#7 -548542956#6 -548542956#5 -548542956#4 -548542956#3 -548542956#1 -548542956#0 -13881187#8 -13881187#7 -13881187#6 -13881187#5 -13881187#4 -13881187#3 -13881187#2 -13881187#1 -8013925#4 -8013925#3 -496810972 -4860438#3 -4860438#2 -4860438#0 -545693552#5 -545693552#4" />
    </vehicle>
    <vehicle id="veh51" type="van" depart="7.20">
        <route edges="368794775#2 368794775#3 -374254548#0 -556387478#0 8625179#4 8625179#5 -6100260#0 -4860438#13 -4860438#12 -4860438#11 -4860438#10 -4860438#9 -4860438#7 -4860438#5 -4860438#4 -4860438#3 -4860438#2 -4860438#0 -545693552#5 -545693552#4 -545693552#3 -545693552#2 -545693552#0 13881187#0 13881187#1 13881187#2 13881187#3 13881187#4 13881187#5 13881187#6 13881187#7 13881187#8 13881187#9 548542956#1 -537842922" />
    </vehicle>
    <vehicle id="veh52" type="truck" depart="7.20">
        <route edges="-108242702#1 -23185037#4 -23185037#3 -23185037#2 -23185037#0 108242702#3 108242702#4 108242702#5 -1494760251#3 -1494760251#2 -1494760251#1 -1494760251#0 -548542956#8 -548542956#7 -548542956#6 -548542956#5 -548542956#4 -548542956#3 -548542956#1 -548542956#0 -13881187#8 -13881187#7 -13881187#6 -13881187#5 -13881187#4 -13881187#3 -13881187#2 -13881187#1 -8013925#4 -8013925#3 -496810972 -4860438#3 -4860438#2 -4860438#0 -545693552#5 -545693552#4" />
    </vehicle>
    <vehicle id="veh53" type="car" depart="7.50">
        <route edges="-19328195#8 -19328195#7 -19328195#6 -19328195#5 -19328195#4 -19328195#3 -19328195#2 -19328195#1 -19328195#0 -19328193 -4860438#26 -4860438#25 -4860438#24 -4860438#23 -4860438#22 -4860438#21 -4860438#20 -4860438#19 -4860438#18 -4860438#17 -4860438#16 -4860438#15 -4860438#13 -4860438#12 -4860438#11 -4860438#10 -4860438#9 -4860438#7 -4860438#5 -4860438#4 -4860438#3 -4860438#2 -4860438#0 -545693552#5 -545693552#4 -545693552#3 -545693552#2 -545693552#0 13881187#0 13881187#1 13881187#2 13881187#3 1428967154#0 1428967154#2 -374247424#5 -374247424#4 374247425#0 1428967151" />
    </vehicle>
    <vehicle id="veh54" type="car" depart="7.80">
        <route edges="495414199#0 495414197#0 495414196#1 495414196#2 -19328195#2 -19328195#1 -19328195#0 -19328193 -4860438#26 -4860438#25 -4860438#24 -4860438#23 -4860438#22 -4860438#21 -4860438#20 -4860438#19 -4860438#18 -4860438#17 -4860438#16 -4860438#15 -4860438#13 -4860438#12 -4860438#11 -4860438#10 -4860438#9 -4860438#7 -4860438#5 -4860438#4 -4860438#3 -4860438#2 -4860438#0 -545693552#5 -545693552#4 -545693552#3 -545693552#2 -108272782#5 -108272782#4 -108272782#3 -108272782#2" />
    </vehicle>
    <vehicle id="veh55" type="car" depart="8.10">
        <route edges="537842922 -548542956#1 -548542956#0 -13881187#8 -13881187#7 -13881187#6 -13881187#5 -13881187#4 -13881187#3 -13881187#2 -13881187#1 -13881187#0 545693552#0 545693552#2 545693552#3 545693552#4 545693552#5 4860438#0 4860438#2 4860438#3 4860438#4 4860438#5 4860438#7 4860438#9 4860438#10 4860438#11 4860438#12 4860438#13 4860438#15 4860438#16 4860438#17 4860438#18 4860438#19 4860438#20 4860438#21 4860438#22 4860438#23 4860438#24 4860438#25 4860438#26 15390366 19328195#0 19328195#1 19328195#2 19328195#3 19328195#4 19328195#5 19328195#6 19328195#7 19328195#8 533314373#1" />
    </vehicle>
    <vehicle id="veh56" type="car" depart="8.40">
        <route edges="556871777#0 556871777#1 556871777#2 -548542956#3 -548542956#1 -548542956#0 -13881187#8 -13881187#7 -13881187#6 -13881187#5 -13881187#4 -13881187#3 -13881187#2 -13881187#1 -13881187#0 545693552#0 545693552#2 545693552#3 545693552#4 545693552#5 4860438#0 4860438#2 4860438#3 4860438#4 4860438#5 4860438#7 4860438#9 4860438#10 4860438#11 4860438#12 4860438#13 4860438#15 4860438#16 4860438#17 4860438#18 4860438#19 4860438#20 4860438#21 4860438#22 4860438#23 -23417665#5 -23417665#4 -23417665#3 -23417665#2 -23417665#1" />
    </vehicle>
    <vehicle id="veh57" type="bus" depart="8.40">
        <route edges="13881187#2 13881187#3 13881187#4 374247437#0 556975357 374249088#1 -8013925#1 -8013925#0 4860438#7 4860438#9 4860438#10 4860438#11 4860438#12 4860438#13 4860438#15 4860438#16 4860438#17 4860438#18 4860438#19 4860438#20 4860438#21 4860438#22 4860438#23 4860438#24 4860438#25 4860438#26 15390366 19328195#0 19328195#1 19328195#2 -495414196#2 -495414196#1 -495414197#0 -495414199#0" />
    </vehicle>
    <vehicle id="veh58" type="lorry" depart="8.40">
        <route edges="-537031568 495414196#2 -19328195#2 -19328195#1 -19328195#0 -19328193 -4860438#26 -4860438#25 -4860438#24 -4860438#23 -4860438#22 -4860438#21 -4860438#20 -4860438#19 -4860438#18 -4860438#17 -4860438#16 -4860438#15 -4860438#13 -4860438#12 -4860438#11 -4860438#10 -4860438#9 -4860438#7 -4860438#5 -4860438#4 -4860438#3 -4860438#2 -4860438#0 -545693552#5 -545693552#4 -545693552#3 -545693552#2 -545693552#0 -597896253#8" />
    </vehicle>
    <vehicle id="veh59" type="van" depart="8.40">
        <route edges="108224672#1 -548542956#4 -548542956#3 -548542956#1 -548542956#0 -13881187#8 -13881187#7 -13881187#6 -13881187#5 -13881187#4 -13881187#3 -13881187#2 -13881187#1 -13881187#0 545693552#0 545693552#2 545693552#3 545693552#4 545693552#5 4860438#0 4860438#2 4860438#3 4860438#4 4860438#5 4860438#7 4860438#9 4860438#10 4860438#11 4860438#12 4860438#13 4860438#15 4860438#16 4860438#17 4860438#18 4860438#19 4860438#20 4860438#21 4860438#22 4860438#23 4860438#24 4860438#25 4860438#26 -23855289#7 -23855289#6 -23855289#4 -11528635 -11528608#2 -11528608#1 -11528608#0" />
    </vehicle>
    <vehicle id="veh60" type="truck" depart="8.40">
        <route edges="-537031568 495414196#2 -19328195#2 -19328195#1 -19328195#0 -19328193 -4860438#26 -4860438#25 -4860438#24 -4860438#23 -4860438#22 -4860438#21 -4860438#20 -4860438#19 -4860438#18 -4860438#17 -4860438#16 -4860438#15 -4860438#13 -4860438#12 -4860438#11 -4860438#10 -4860438#9 -4860438#7 -4860438#5 -4860438#4 -4860438#3 -4860438#2 -4860438#0 -545693552#5 -545693552#4 -545693552#3 -545693552#2 -545693552#0 -597896253#8" />
    </vehicle>
    <vehicle id="veh61" type="car" depart="8.70">
        <route edges="-1494760251#3 -1494760251#2 -1494760251#1 -1494760251#0 -548542956#8 -548542956#7 -548542956#6 -548542956#5 -548542956#4 -548542956#3 -548542956#1 -548542956#0 -13881187#8 -13881187#7 -13881187#6 -13881187#5 -13881187#4 -13881187#3 -13881187#2 -13881187#1 -13881187#0 545693552#0 545693552#2 545693552#3 545693552#4 545693552#5 4860438#0 4860438#2 4860438#3 4860438#4 4860438#5 4860438#7 4860438#9 4860438#10 4860438#11 4860438#12 4860438#13 4860438#15 4860438#16 4860438#17 4860438#18 4860438#19 4860438#20 4860438#21 4860438#22 4860438#23 4860438#24 4860438#25 4860438#26 6094840#0 6094840#1 6094840#2 6094840#3 6094840#4" />
    </vehicle>
    <vehicle id="veh62" type="car" depart="9.00">