<?xml version='1.0' encoding='UTF-8'?>
<additional>
  <rerouter id="cityLoop" edges="-10548191 -108208905#0 -108208905#1 -108208907#0 -108208907#1 -108208907#2 -108208908 -108208909#0 -108208909#1 -108208910#0 -108208910#1 -108208910#2 -108208910#3 -108208912#0 -108208912#1 -108208913 -108208914 -108208915 -108208917#0 -108208917#1 -108208918 -108208919 -108208920#0 -108208920#1 -108208921 -108209928#0 -108209928#1 -108209928#2 -108209928#3 -108209929 -108209930#0 -108209930#2 -108209931 -108209932#0 -108209932#1 -108224672#0 -108224672#1 -108234517 -108242702#0 -108242702#1 -108242702#2 -108242702#3 -108242702#4 -108242702#5 -108243023 -108243887#0 -108243887#1 -108272782#0 -108272782#2 -108272782#3 -108272782#4 -108272782#5 -108272785#0 -108272788 -108272789 -108272790#0 -1096963959 -1096963960 -1096963961 -1096963964 -1096963965 -11528608#0 -11528608#1 -11528608#2 -11528612#0 -11528612#1 -11528635 -1156489160 -1156489161 -122047017#0 -122047017#1 -122047017#2 -1245177968#0 -1245177968#1 -1245177969 -1245196885 -1255587096 -1276414374 -1276414375 -1377451100 -1377451101 -1377451102 -1377451103 -1377451104 -1377451105 -13881187#0 -13881187#1 -13881187#2 -13881187#3 -13881187#4 -13881187#5 -13881187#6 -13881187#7 -13881187#8 -1428967151 -1428967152 -1428967153 -1428967154#0 -1428967154#2 -1429007177 -1429007178 -1429185933 -1429186328 -1429186329 -1429186330 -148652003#0 -148652003#1 -148652003#2 -1494760251#0 -1494760251#1 -1494760251#2 -1494760251#3 -1494760251#5 -15242152#0 -15242152#1 -15242152#2 -15242153 -1525386236 -15390370#0 -15390370#1 -15390370#2 -15390370#3 -15390370#4 -15390370#5 -186444556#1 -186444556#2 -186444556#3 -19328193 -19328195#0 -19328195#1 -19328195#2 -19328195#3 -19328195#4 -19328195#5 -19328195#6 -19328195#7 -19328195#8 -19328195#9 -23185037#0 -23185037#2 -23185037#3 -23185037#4 -232365049#3 -232365051#3 -232365051#5 -232365054 -23417665#0 -23417665#1 -23417665#2 -23417665#3 -23417665#4 -23417665#5 -23417666 -23417667 -23417668 -23417669 -23417670 -23417672#0 -23417672#1 -23417672#2 -23417673#0 -23417673#1 -23417674#0 -23417674#1 -23417676#0 -23417676#1 -23417677 -23417681 -23418531 -23418532 -23418533 -23418534#0 -23418534#1 -23418536#0 -23418536#1 -23418538#0 -23418538#1 -23418539 -23418540#0 -23418540#1 -23418540#2 -23418540#3 -23418543#0 -23418543#1 -23418543#2 -23418543#3 -23418544 -23575436 -23592598#0 -23592598#1 -23592598#2 -23855289#0 -23855289#1 -23855289#2 -23855289#3 -23855289#4 -23855289#6 -23855289#7 -23915154#0 -23915154#1 -23915155 -28111393 -28185511 -28185513 -28185567 -328626135 -331397686#0 -331397686#1 -331397686#2 -356549965 -368793531#0 -368793531#1 -368793531#2 -368793531#3 -368794775#1 -368794775#2 -368794775#3 -368794775#4 -368794775#5 -368794775#6 -368796142#0 -368796142#1 -368796142#2 -368796225#0 -368796225#1 -368796225#2 -368796225#3 -374247415 -374247420#0 -374247420#1 -374247421 -374247422 -374247423#0 -374247423#1 -374247424#0 -374247424#2 -374247424#3 -374247424#4 -374247424#5 -374247424#6 -374247425#0 -374247425#1 -374247426 -374247427#0 -374247427#1 -374247430#0 -374247430#2 -374247430#3 -374247431#0 -374247431#1 -374247432 -374247433 -374247434#0 -374247434#1 -374247434#2 -374247435#0 -374247435#1 -374247436 -374247437#0 -374247437#1 -374247438#0 -374247438#1 -374247439 -374249088#0 -374249088#1 -374249089 -374249090 -374249091 -374249092#0 -374249092#1 -374249093 -374249094 -374249095#0 -374249095#2 -374249097#0 -374249097#1 -374249098 -374249099#1 -374249099#2 -374249100 -374249101#0 -374249101#1 -374249101#2 -374249106#0 -374249106#1 -374254542#0 -374254542#1 -374254545 -374254546 -374254547#0 -374254547#1 -374254548#0 -374254548#1 -374254549 -374254550#0 -374254550#1 -374254551 -374254552 -374254553 -374254554 -374254555 -374254556 -374254557 -374254559 -374254561 -374254563 -4860428#0 -4860428#1 -4860428#2 -4860428#3 -4860438#0 -4860438#10 -4860438#11 -4860438#12 -4860438#13 -4860438#15 -4860438#16 -4860438#17 -4860438#18 -4860438#19 -4860438#2 -4860438#20 -4860438#21 -4860438#22 -4860438#23 -4860438#24 -4860438#25 -4860438#26 -4860438#3 -4860438#4 -4860438#5 -4860438#7 -4860438#9 -495414196#1 -495414196#2 -495414197#0 -495414197#1 -495414198 -495414199#0 -495414199#1 -495414200 -495414201 -495414202 -495414215 -495414216#0 -495414216#1 -495414217#0 -495414217#1 -495414218 -495414219 -495414220#0 -495414220#1 -495414220#2 -495414221 -495414222 -495414226 -496810972 -496810973 -51147654 -51149925#0 -51149925#1 -51149925#2 -51263358 -533143944 -533314373#1 -533314374 -533804635 -536308987 -536308988#0 -536308988#1 -536860773 -536863283 -537025782 -537025816 -537030915 -537031568 -537306422 -537306423#0 -537306423#1 -537306424#0 -537306424#1 -537306425 -537306426#0 -537306426#1 -537306426#2 -537306427 -537359562 -537470481#0 -537470481#1 -537470481#2 -537470482 -537559372 -537559381 -537841945 -537842922 -537843070 -538095836 -538095843 -538096122 -538096123 -538096124 -538096522 -539522032 -543179760 -543180145#0 -543180145#1 -543180145#2 -543183050 -543183051 -543183052 -543183056 -543184947 -543749572 -545693552#0 -545693552#2 -545693552#3 -545693552#4 -545693552#5 -546114112 -547139152 -547144397 -548542956#0 -548542956#1 -548542956#3 -548542956#4 -548542956#5 -548542956#6 -548542956#7 -548542956#8 -553125742 -553346961 -556368821 -556368822 -556374612 -556374621 -556384531 -556384552 -556387478#0 -556387478#1 -556387483 -556388609 -556388618 -556388626 -556388639 -556388647 -556635388 -556635389#0 -556635389#1 -556635390#0 -556635390#1 -556635400 -556640415 -556871777#0 -556871777#1 -556871777#2 -556900441 -556900447 -556902784 -556902793 -556967922 -556967924 -556967930 -556975325 -556975326 -556975328#0 -556975328#1 -556975328#2 -556975361 -557839096 -557839097 -557849479 -557849480 -557849485 -560462731 -5914873#0 -5914873#2 -5914873#3 -5914873#4 -5914884#0 -5914884#1 -5914884#2 -5914884#3 -5914884#4 -5914884#5 -5914884#6 -597896253#0 -597896253#2 -597896253#3 -597896253#4 -597896253#5 -597896253#6 -597896253#8 -597904299 -6094840#0 -6094840#1 -6094840#2 -6094840#3 -6094840#4 -6094840#5 -6094840#6 -6100260#0 -6100260#1 -6100260#11 -6100260#3 -6100260#4 -6100260#5 -6100260#6 -6100260#7 -6100260#8 -6100260#9 -6743656#0 -6743656#1 -6743656#11 -6743656#13 -6743656#14 -6743656#15 -6743656#17 -6743656#18 -6743656#19 -6743656#2 -6743656#3 -6743656#4 -6743656#5 -6743656#6 -6743656#7 -6743656#8 -6743656#9 -6758161 -692240871 -7156718#0 -7156718#1 -7156718#2 -775561264 -8013925#0 -8013925#1 -8013925#2 -8013925#3 -8013925#4 -8049874#0 -8049874#1 -8049874#2 -8049874#3 -8072145#0 -8072145#1 -8072145#2 -8571341#0 -8571341#1 -8571341#2 -8571341#3 -8571341#4 -8571341#5 -859070828 -8625152 -8625179#0 -8625179#1 -8625179#2 -8625179#4 -8625179#5 -8625194 -8625197 -8625257 -8625295#0 -8625295#1 -9459885 -9459893 -9459906 10548191 108208905#0 108208905#1 108208907#0 108208907#1 108208907#2 108208908 108208909#0 108208909#1 108208910#1 108208910#2 108208910#3 108208910#4 108208911 108208912#0 108208912#1 108208913 108208914 108208915 108208917#0 108208917#1 108208918 108208919 108208920#1 108208921 108208922 108209928#0 108209928#1 108209928#2 108209928#3 108209929 108209930#0 108209930#2 108209931 108209932#0 108209932#1 108224672#0 108224672#1 108234517 108242702#0 108242702#1 108242702#2 108242702#3 108242702#4 108242702#5 108243023 108243887#0 108243887#1 108272782#0 108272782#2 108272782#3 108272782#4 108272782#5 108272785#0 108272785#1 108272788 108272789 108272790#0 108272790#1 1096963959 1096963960 1096963961 1096963964 1096963965 11528525 11528608#0 11528608#1 11528608#2 11528612#0 11528612#1 11528635 1156489160 1156489161 122047017#0 122047017#1 122047017#2 122047017#3 1245177968#0 1245177968#1 1245177969 1245196885 1255587096 1276414374 1276414375 1377451100 1377451101 1377451102 1377451103 1377451104 1377451105 13881187#0 13881187#1 13881187#2 13881187#3 13881187#4 13881187#5 13881187#6 13881187#7 13881187#8 13881187#9 1428967151 1428967152 1428967153 1428967154#0 1428967154#2 1429007177 1429007178 1429185933 1429186328 1429186329 1429186330 148652003#0 148652003#1 148652003#2 1494760251#0 1494760251#1 1494760251#2 1494760251#3 1494760251#5 15242152#0 15242152#1 15242152#2 15242153 1525386236 15390366 15390370#0 15390370#1 15390370#2 15390370#3 15390370#4 15390370#5 15390370#6 186444556#0 186444556#2 186444556#3 19328195#0 19328195#1 19328195#2 19328195#3 19328195#4 19328195#5 19328195#6 19328195#7 19328195#8 19328195#9 23185037#0 23185037#2 23185037#3 23185037#4 232365049#0 232365051#0 232365051#4 232365054 23417665#0 23417665#1 23417665#2 23417665#3 23417665#4 23417665#5 23417666 23417667 23417668 23417669 23417670 23417672#0 23417672#1 23417672#2 23417673#0 23417673#1 23417674#0 23417674#1 23417676#0 23417676#1 23417677 23417681 23417682 23417683 23418531 23418532 23418533 23418534#0 23418534#1 23418536#0 23418536#1 23418538#1 23418539 23418540#0 23418540#1 23418540#2 23418540#3 23418543#0 23418543#1 23418543#2 23418543#3 23418544 23575436 23592598#0 23592598#1 23592598#2 23855289#0 23855289#1 23855289#2 23855289#3 23855289#4 23855289#5 23855289#7 23915154#1 23915155 28111393 28185511 28185513 28185567 328626135 331397686#0 331397686#1 331397686#2 356549965 368793531#0 368793531#1 368793531#2 368793531#3 368794775#1 368794775#2 368794775#3 368794775#4 368794775#5 368794775#6 368796142#1 368796142#2 368796225#0 368796225#1 368796225#2 368796225#3 374247414 374247415 374247420#0 374247420#1 374247421 374247422 374247423#0 374247423#1 374247424#0 374247424#2 374247424#3 374247424#4 374247424#5 374247424#6 374247425#0 374247425#1 374247426 374247427#1 374247429 374247430#0 374247430#1 374247430#3 374247431#0 374247431#1 374247432 374247433 374247434#0 374247434#1 374247434#2 374247435#0 374247435#1 374247436 374247437#0 374247437#1 374247438#0 374247438#1 374247439 374249088#0 374249088#1 374249089 374249090 374249091 374249092#0 374249092#1 374249093 374249094 374249095#0 374249095#1 374249097#1 374249098 374249099#0 374249099#2 374249100 374249101#0 374249101#1 374249101#2 374249106#0 374249106#1 374254542#0 374254542#1 374254545 374254546 374254547#1 374254548#0 374254548#1 374254549 374254550#0 374254550#1 374254551 374254553 374254554 374254555 374254556 374254557 374254558 374254559 374254561 374254563 4860428#0 4860428#1 4860428#2 4860428#3 4860438#0 4860438#10 4860438#11 4860438#12 4860438#13 4860438#15 4860438#16 4860438#17 4860438#18 4860438#19 4860438#2 4860438#20 4860438#21 4860438#22 4860438#23 4860438#24 4860438#25 4860438#26 4860438#3 4860438#4 4860438#5 4860438#7 4860438#9 495414196#1 495414196#2 495414197#0 495414197#1 495414198 495414199#0 495414199#1 495414200 495414201 495414215 495414216#0 495414216#1 495414217#0 495414217#1 495414218 495414219 495414220#0 495414220#1 495414220#2 495414221 495414222 495414226 496810972 496810973 51147654 51149925#0 51149925#1 51149925#2 51263358 533143944 533314373#1 533314374 533804635 536308987 536308988#0 536308988#1 536860773 536863283 537025782 537025816 537030915 537031568 537306422 537306423#0 537306423#1 537306424#0 537306424#1 537306425 537306426#0 537306426#1 537306426#2 537306427 537359562 537470481#1 537470481#2 537559372 537559381 537841945 537842922 537843070 538095836 538095843 538096122 538096123 538096124 538096522 539522032 543179760 543180145#0 543180145#1 543180145#2 543183050 543183051 543183052 543183056 543184947 543749572 545693552#0 545693552#2 545693552#3 545693552#4 545693552#5 546114112 547139152 547144397 548542956#1 548542956#3 548542956#4 548542956#5 548542956#6 548542956#7 548542956#8 553125742 553346961 556368820 556368821 556368822 556374612 556374621 556384531 556384552 556387478#0 556387478#1 556387483 556388609 556388618 556388626 556388639 556388647 556635388 556635389#0 556635389#1 556635390#0 556635390#1 556635400 556640415 556871777#0 556871777#1 556871777#2 556900447 556902783 556902793 556967922 556967924 556967930 556975325 556975326 556975328#0 556975328#1 556975328#2 556975357 556975361 557839096 557839097 557849479 557849480 557849485 560462731 5914873#0 5914873#2 5914873#3 5914873#4 5914873#6 5914884#0 5914884#1 5914884#2 5914884#3 5914884#4 5914884#5 5914884#6 597896253#2 597896253#3 597896253#4 597896253#5 597896253#6 597896253#8 597904299 6094840#0 6094840#1 6094840#2 6094840#3 6094840#4 6094840#5 6094840#6 6100260#0 6100260#1 6100260#11 6100260#3 6100260#4 6100260#5 6100260#6 6100260#7 6100260#8 6100260#9 672113030 6743656#0 6743656#1 6743656#11 6743656#13 6743656#14 6743656#15 6743656#17 6743656#18 6743656#19 6743656#2 6743656#3 6743656#4 6743656#5 6743656#6 6743656#7 6743656#8 6743656#9 6758161 7156718#0 7156718#1 7156718#2 775561264 8013925#0 8013925#1 8013925#2 8013925#3 8013925#4 8049874#0 8049874#1 8049874#2 8049874#3 8072145#0 8072145#1 8072145#2 8571341#0 8571341#1 8571341#2 8571341#3 8571341#4 8571341#5 8625152 8625179#0 8625179#1 8625179#2 8625179#4 8625179#5 8625182#0 8625194 8625197 8625257 8625295#0 8625295#1 9459885 9459893 9459906" probability="1.0">
    <interval begin="0" end="600">
      <destProbReroute id="-10548191" probability="1" />
      <destProbReroute id="-108208905#1" probability="1" />
      <destProbReroute id="-108208907#1" probability="1" />
      <destProbReroute id="-108208907#2" probability="1" />
      <destProbReroute id="-108208908" probability="1" />
      <destProbReroute id="-108208909#1" probability="1" />
      <destProbReroute id="-108208910#0" probability="1" />
      <destProbReroute id="-108208910#1" probability="1" />
      <destProbReroute id="-108208910#2" probability="1" />
      <destProbReroute id="-108208910#3" probability="1" />
      <destProbReroute id="-108208912#1" probability="1" />
      <destProbReroute id="-108208915" probability="1" />
      <destProbReroute id="-108208917#0" probability="1" />
      <destProbReroute id="-108208917#1" probability="1" />
      <destProbReroute id="-108208918" probability="1" />
      <destProbReroute id="-108208919" probability="1" />
      <destProbReroute id="-108208920#0" probability="1" />
      <destProbReroute id="-108208920#1" probability="1" />
      <destProbReroute id="-108208921" probability="1" />
      <destProbReroute id="-108209928#0" probability="1" />
      <destProbReroute id="-108209928#1" probability="1" />
      <destProbReroute id="-108209928#2" probability="1" />
      <destProbReroute id="-108209928#3" probability="1" />
      <destProbReroute id="-108209929" probability="1" />
      <destProbReroute id="-108209930#2" probability="1" />
      <destProbReroute id="-108209932#0" probability="1" />
      <destProbReroute id="-108209932#1" probability="1" />
      <destProbReroute id="-108224672#1" probability="1" />
      <destProbReroute id="-108234517" probability="1" />
      <destProbReroute id="-108242702#0" probability="1" />
      <destProbReroute id="-108242702#1" probability="1" />
      <destProbReroute id="-108242702#2" probability="1" />
      <destProbReroute id="-108242702#3" probability="1" />
      <destProbReroute id="-108242702#4" probability="1" />
      <destProbReroute id="-108242702#5" probability="1" />
      <destProbReroute id="-108243887#1" probability="1" />
      <destProbReroute id="-108272782#2" probability="1" />
      <destProbReroute id="-108272782#3" probability="1" />
      <destProbReroute id="-108272782#4" probability="1" />
      <destProbReroute id="-108272782#5" probability="1" />
      <destProbReroute id="-108272785#0" probability="1" />
      <destProbReroute id="-108272788" probability="1" />
      <destProbReroute id="-1096963961" probability="1" />
      <destProbReroute id="-11528608#0" probability="1" />
      <destProbReroute id="-11528608#1" probability="1" />
      <destProbReroute id="-11528608#2" probability="1" />
      <destProbReroute id="-11528612#0" probability="1" />
      <destProbReroute id="-11528612#1" probability="1" />
      <destProbReroute id="-11528635" probability="1" />
      <destProbReroute id="-1156489160" probability="1" />
      <destProbReroute id="-122047017#0" probability="1" />
      <destProbReroute id="-122047017#1" probability="1" />
      <destProbReroute id="-122047017#2" probability="1" />
      <destProbReroute id="-1245177968#0" probability="1" />
      <destProbReroute id="-1245177968#1" probability="1" />
      <destProbReroute id="-1245177969" probability="1" />
      <destProbReroute id="-1245196885" probability="1" />
      <destProbReroute id="-1255587096" probability="1" />
      <destProbReroute id="-1276414374" probability="1" />
      <destProbReroute id="-1276414375" probability="1" />
      <destProbReroute id="-1377451100" probability="1" />
      <destProbReroute id="-1377451101" probability="1" />
      <destProbReroute id="-1377451102" probability="1" />
      <destProbReroute id="-1377451103" probability="1" />
      <destProbReroute id="-1377451104" probability="1" />
      <destProbReroute id="-1377451105" probability="1" />
      <destProbReroute id="-13881187#0" probability="1" />
      <destProbReroute id="-13881187#1" probability="1" />
      <destProbReroute id="-13881187#2" probability="1" />
      <destProbReroute id="-13881187#3" probability="1" />
      <destProbReroute id="-13881187#4" probability="1" />
      <destProbReroute id="-13881187#5" probability="1" />
      <destProbReroute id="-13881187#6" probability="1" />
      <destProbReroute id="-13881187#7" probability="1" />
      <destProbReroute id="-13881187#8" probability="1" />
      <destProbReroute id="-1428967151" probability="1" />
      <destProbReroute id="-1428967152" probability="1" />
      <destProbReroute id="-1428967153" probability="1" />
      <destProbReroute id="-1428967154#0" probability="1" />
      <destProbReroute id="-1428967154#2" probability="1" />
      <destProbReroute id="-1429007177" probability="1" />
      <destProbReroute id="-1429007178" probability="1" />
      <destProbReroute id="-1429185933" probability="1" />
      <destProbReroute id="-148652003#0" probability="1" />
      <destProbReroute id="-148652003#1" probability="1" />
      <destProbReroute id="-148652003#2" probability="1" />
      <destProbReroute id="-1494760251#0" probability="1" />
      <destProbReroute id="-1494760251#1" probability="1" />
      <destProbReroute id="-1494760251#2" probability="1" />
      <destProbReroute id="-1494760251#3" probability="1" />
      <destProbReroute id="-1494760251#5" probability="1" />
      <destProbReroute id="-15242152#0" probability="1" />
      <destProbReroute id="-15242152#1" probability="1" />
      <destProbReroute id="-15242152#2" probability="1" />
      <destProbReroute id="-15242153" probability="1" />
      <destProbReroute id="-1525386236" probability="1" />
      <destProbReroute id="-15390370#1" probability="1" />
      <destProbReroute id="-15390370#2" probability="1" />
      <destProbReroute id="-15390370#3" probability="1" />
      <destProbReroute id="-15390370#4" probability="1" />
      <destProbReroute id="-15390370#5" probability="1" />
      <destProbReroute id="-186444556#2" probability="1" />
      <destProbReroute id="-186444556#3" probability="1" />
      <destProbReroute id="-19328193" probability="1" />
      <destProbReroute id="-19328195#0" probability="1" />
      <destProbReroute id="-19328195#1" probability="1" />
      <destProbReroute id="-19328195#2" probability="1" />
      <destProbReroute id="-19328195#3" probability="1" />
      <destProbReroute id="-19328195#4" probability="1" />
      <destProbReroute id="-19328195#5" probability="1" />
      <destProbReroute id="-19328195#6" probability="1" />
      <destProbReroute id="-19328195#7" probability="1" />
      <destProbReroute id="-19328195#8" probability="1" />
      <destProbReroute id="-19328195#9" probability="1" />
      <destProbReroute id="-23185037#0" probability="1" />
      <destProbReroute id="-23185037#2" probability="1" />
      <destProbReroute id="-23185037#3" probability="1" />
      <destProbReroute id="-23185037#4" probability="1" />
      <destProbReroute id="-232365049#3" probability="1" />
      <destProbReroute id="-232365051#3" probability="1" />
      <destProbReroute id="-232365051#5" probability="1" />
      <destProbReroute id="-23417665#0" probability="1" />
      <destProbReroute id="-23417665#1" probability="1" />
      <destProbReroute id="-23417665#2" probability="1" />
      <destProbReroute id="-23417665#3" probability="1" />
      <destProbReroute id="-23417665#4" probability="1" />
      <destProbReroute id="-23417665#5" probability="1" />
      <destProbReroute id="-23417666" probability="1" />
      <destProbReroute id="-23417667" probability="1" />
      <destProbReroute id="-23417668" probability="1" />
      <destProbReroute id="-23417669" probability="1" />
      <destProbReroute id="-23417670" probability="1" />
      <destProbReroute id="-23417672#0" probability="1" />
      <destProbReroute id="-23417672#1" probability="1" />
      <destProbReroute id="-23417672#2" probability="1" />
      <destProbReroute id="-23417673#0" probability="1" />
      <destProbReroute id="-23417673#1" probability="1" />
      <destProbReroute id="-23417674#0" probability="1" />
      <destProbReroute id="-23417674#1" probability="1" />
      <destProbReroute id="-23417676#0" probability="1" />
      <destProbReroute id="-23417676#1" probability="1" />
      <destProbReroute id="-23417677" probability="1" />
      <destProbReroute id="-23417681" probability="1" />
      <destProbReroute id="-23418531" probability="1" />
      <destProbReroute id="-23418532" probability="1" />
      <destProbReroute id="-23418533" probability="1" />
      <destProbReroute id="-23418534#0" probability="1" />
      <destProbReroute id="-23418534#1" probability="1" />
      <destProbReroute id="-23418536#0" probability="1" />
      <destProbReroute id="-23418536#1" probability="1" />
      <destProbReroute id="-23418538#0" probability="1" />
      <destProbReroute id="-23418538#1" probability="1" />
      <destProbReroute id="-23418539" probability="1" />
      <destProbReroute id="-23418540#0" probability="1" />
      <destProbReroute id="-23418540#1" probability="1" />
      <destProbReroute id="-23418540#2" probability="1" />
      <destProbReroute id="-23418540#3" probability="1" />
      <destProbReroute id="-23418543#0" probability="1" />
      <destProbReroute id="-23418543#1" probability="1" />
      <destProbReroute id="-23418543#2" probability="1" />
      <destProbReroute id="-23418543#3" probability="1" />
      <destProbReroute id="-23418544" probability="1" />
      <destProbReroute id="-23575436" probability="1" />
      <destProbReroute id="-23592598#1" probability="1" />
      <destProbReroute id="-23592598#2" probability="1" />
      <destProbReroute id="-23855289#1" probability="1" />
      <destProbReroute id="-23855289#2" probability="1" />
      <destProbReroute id="-23855289#3" probability="1" />
      <destProbReroute id="-23855289#4" probability="1" />
      <destProbReroute id="-23855289#6" probability="1" />
      <destProbReroute id="-23855289#7" probability="1" />
      <destProbReroute id="-23915154#0" probability="1" />
      <destProbReroute id="-23915154#1" probability="1" />
      <destProbReroute id="-23915155" probability="1" />
      <destProbReroute id="-28111393" probability="1" />
      <destProbReroute id="-28185511" probability="1" />
      <destProbReroute id="-28185513" probability="1" />
      <destProbReroute id="-28185567" probability="1" />
      <destProbReroute id="-328626135" probability="1" />
      <destProbReroute id="-331397686#1" probability="1" />
      <destProbReroute id="-331397686#2" probability="1" />
      <destProbReroute id="-356549965" probability="1" />
      <destProbReroute id="-368793531#0" probability="1" />
      <destProbReroute id="-368793531#1" probability="1" />
      <destProbReroute id="-368793531#2" probability="1" />
      <destProbReroute id="-368793531#3" probability="1" />
      <destProbReroute id="-368794775#1" probability="1" />
      <destProbReroute id="-368794775#2" probability="1" />
      <destProbReroute id="-368794775#3" probability="1" />
      <destProbReroute id="-368794775#4" probability="1" />
      <destProbReroute id="-368794775#5" probability="1" />
      <destProbReroute id="-368794775#6" probability="1" />
      <destProbReroute id="-368796142#0" probability="1" />
      <destProbReroute id="-368796142#1" probability="1" />
      <destProbReroute id="-368796142#2" probability="1" />
      <destProbReroute id="-368796225#0" probability="1" />
      <destProbReroute id="-368796225#1" probability="1" />
      <destProbReroute id="-368796225#2" probability="1" />
      <destProbReroute id="-368796225#3" probability="1" />
      <destProbReroute id="-374247415" probability="1" />
      <destProbReroute id="-374247420#0" probability="1" />
      <destProbReroute id="-374247420#1" probability="1" />
      <destProbReroute id="-374247421" probability="1" />
      <destProbReroute id="-374247422" probability="1" />
      <destProbReroute id="-374247423#1" probability="1" />
      <destProbReroute id="-374247424#0" probability="1" />
      <destProbReroute id="-374247424#2" probability="1" />
      <destProbReroute id="-374247424#3" probability="1" />
      <destProbReroute id="-374247424#4" probability="1" />
      <destProbReroute id="-374247424#5" probability="1" />
      <destProbReroute id="-374247424#6" probability="1" />
      <destProbReroute id="-374247425#0" probability="1" />
      <destProbReroute id="-374247425#1" probability="1" />
      <destProbReroute id="-374247426" probability="1" />
      <destProbReroute id="-374247427#0" probability="1" />
      <destProbReroute id="-374247427#1" probability="1" />
      <destProbReroute id="-374247430#0" probability="1" />
      <destProbReroute id="-374247430#2" probability="1" />
      <destProbReroute id="-374247430#3" probability="1" />
      <destProbReroute id="-374247431#0" probability="1" />
      <destProbReroute id="-374247431#1" probability="1" />
      <destProbReroute id="-374247433" probability="1" />
      <destProbReroute id="-374247434#0" probability="1" />
      <destProbReroute id="-374247434#1" probability="1" />
      <destProbReroute id="-374247434#2" probability="1" />
      <destProbReroute id="-374247435#0" probability="1" />
      <destProbReroute id="-374247435#1" probability="1" />
      <destProbReroute id="-374247436" probability="1" />
      <destProbReroute id="-374247437#0" probability="1" />
      <destProbReroute id="-374247437#1" probability="1" />
      <destProbReroute id="-374247438#0" probability="1" />
      <destProbReroute id="-374247438#1" probability="1" />
      <destProbReroute id="-374247439" probability="1" />
      <destProbReroute id="-374249088#1" probability="1" />
      <destProbReroute id="-374249089" probability="1" />
      <destProbReroute id="-374249090" probability="1" />
      <destProbReroute id="-374249092#0" probability="1" />
      <destProbReroute id="-374249092#1" probability="1" />
      <destProbReroute id="-374249093" probability="1" />
      <destProbReroute id="-374249094" probability="1" />
      <destProbReroute id="-374249095#0" probability="1" />
      <destProbReroute id="-374249095#2" probability="1" />
      <destProbReroute id="-374249097#0" probability="1" />
      <destProbReroute id="-374249097#1" probability="1" />
      <destProbReroute id="-374249098" probability="1" />
      <destProbReroute id="-374249099#1" probability="1" />
      <destProbReroute id="-374249099#2" probability="1" />
      <destProbReroute id="-374249100" probability="1" />
      <destProbReroute id="-374249101#0" probability="1" />
      <destProbReroute id="-374249101#1" probability="1" />
      <destProbReroute id="-374249101#2" probability="1" />
      <destProbReroute id="-374249106#1" probability="1" />
      <destProbReroute id="-374254542#0" probability="1" />
      <destProbReroute id="-374254542#1" probability="1" />
      <destProbReroute id="-374254545" probability="1" />
      <destProbReroute id="-374254546" probability="1" />
      <destProbReroute id="-374254547#0" probability="1" />
      <destProbReroute id="-374254547#1" probability="1" />
      <destProbReroute id="-374254548#0" probability="1" />
      <destProbReroute id="-374254548#1" probability="1" />
      <destProbReroute id="-374254549" probability="1" />
      <destProbReroute id="-374254550#1" probability="1" />
      <destProbReroute id="-374254552" probability="1" />
      <destProbReroute id="-374254553" probability="1" />
      <destProbReroute id="-374254554" probability="1" />
      <destProbReroute id="-374254559" probability="1" />
      <destProbReroute id="-374254563" probability="1" />
      <destProbReroute id="-4860428#1" probability="1" />
      <destProbReroute id="-4860428#2" probability="1" />
      <destProbReroute id="-4860428#3" probability="1" />
      <destProbReroute id="-4860438#0" probability="1" />
      <destProbReroute id="-4860438#10" probability="1" />
      <destProbReroute id="-4860438#11" probability="1" />
      <destProbReroute id="-4860438#12" probability="1" />
      <destProbReroute id="-4860438#13" probability="1" />
      <destProbReroute id="-4860438#15" probability="1" />
      <destProbReroute id="-4860438#16" probability="1" />
      <destProbReroute id="-4860438#17" probability="1" />
      <destProbReroute id="-4860438#18" probability="1" />
      <destProbReroute id="-4860438#19" probability="1" />
      <destProbReroute id="-4860438#2" probability="1" />
      <destProbReroute id="-4860438#20" probability="1" />
      <destProbReroute id="-4860438#21" probability="1" />
      <destProbReroute id="-4860438#22" probability="1" />
      <destProbReroute id="-4860438#23" probability="1" />
      <destProbReroute id="-4860438#24" probability="1" />
      <destProbReroute id="-4860438#25" probability="1" />