<?xml version="1.0" encoding="UTF-8"?>

<!-- generated on 2026-07-01 15:09:01.832738 by Eclipse SUMO randomTrips.py v1.27.0
<configuration>
    <net-file value="galle.net.xml"/>
    <additional-files value="vtypes.add.xml"/>
    <output-trip-file value="trips_car.trips.xml"/>
    <route-file value="trips_car.rou.xml"/>
    <vtype-output value="car"/>
    <prefix value="car_"/>
    <vehicle-class value="passenger"/>
    <fringe-factor value="1"/>
    <allow-fringe.min-length value="1000.0"/>
    <seed value="45"/>
    <min-distance value="1200.0"/>
    <max-distance value="4000.0"/>
    <end value="30.0"/>
    <period value="0.3"/>
</configuration>
-->

<!-- generated on 2026-07-01T15:09:01.798408+05:30 by Eclipse SUMO duarouter 1.27.0
<duarouterConfiguration xmlns:xsi="http://www.w3.org/2001/XMLSchema-instance" xsi:noNamespaceSchemaLocation="http://sumo.dlr.de/xsd/duarouterConfiguration.xsd">

    <input>
        <net-file value="galle.net.xml"/>
        <additional-files value="vtypes.add.xml,car"/>
        <route-files value="trips_car.trips.xml"/>
    </input>

    <output>
        <output-file value="trips_car.rou.xml"/>
        <vtype-output value="car"/>
        <alternatives-output value="NUL"/>
    </output>

    <processing>
        <routing-threads value="16"/>
    </processing>

    <time>
        <begin value="0.0"/>
        <end value="30.0"/>
    </time>

    <report>
        <no-warnings value="true"/>
        <ignore-errors value="true"/>
        <no-step-log value="true"/>
    </report>

</duarouterConfiguration>
-->

<routes xmlns:xsi="http://www.w3.org/2001/XMLSchema-instance" xsi:noNamespaceSchemaLocation="http://sumo.dlr.de/xsd/routes_file.xsd">
    <vehicle id="car_0" type="car__passenger" depart="0.00">
        <route edges="-374249101#2 -374249101#1 -374249101#0 -6743656#13 -6743656#11 -6743656#9 -6743656#8 -6743656#7 -6743656#6 -6743656#5 -6743656#4 -6743656#3 -6743656#2 -6743656#1 -6743656#0 -6094840#4 -6094840#3 -6094840#2 -6094840#1 -6094840#0 15390366 -8571341#4 -8571341#3 -8571341#2 -8571341#1 -8571341#0 23418540#0 23418540#1 556368820 23418538#1 -15390370#5 -15390370#4 -108209928#0 108209930#2 -536863283 108243887#1 108242702#0"/>
    </vehicle>
    <vehicle id="car_1" type="car__passenger" depart="0.30">
        <route edges="495414217#1 15390370#3 15390370#4 15390370#5 -23418538#1 -23418538#0 -23418540#1 -23418540#0 8625182#0 -23418534#1 -23418534#0 -374247431#1 108208911 108208910#1 108208910#2 108208910#3 374249092#0 374249093"/>
    </vehicle>
    <vehicle id="car_2" type="car__passenger" depart="0.60">
        <route edges="-13881187#5 -13881187#4 -13881187#3 -13881187#2 -13881187#1 -13881187#0 545693552#0 545693552#2 545693552#3 545693552#4 545693552#5 4860438#0 4860438#2 4860438#3 4860438#4 4860438#5 -108208918 -6100260#6 -368796142#2 374249099#0 374249099#2 -6743656#15"/>
    </vehicle>
    <vehicle id="car_3" type="car__passenger" depart="0.90">
        <route edges="-23418543#2 -23418543#1 -23418543#0 -19328195#6 -19328195#5 -19328195#4 -19328195#3 -19328195#2 -19328195#1 -19328195#0 -19328193 6094840#0 6094840#1 6094840#2 6094840#3 6094840#4 6743656#0 6743656#1 6743656#2 6743656#3 -374254551"/>
    </vehicle>
    <vehicle id="car_4" type="car__passenger" depart="1.20">
        <route edges="-1494760251#1 -1494760251#0 -548542956#8 -548542956#7 -548542956#6 -548542956#5 -548542956#4 -548542956#3 -548542956#1 -548542956#0 -13881187#8 -13881187#7 -13881187#6 -13881187#5 -13881187#4 -13881187#3 -13881187#2 -13881187#1 -13881187#0 545693552#0 545693552#2 545693552#3 545693552#4 545693552#5 4860438#0 4860438#2 4860438#3 4860438#4 4860438#5 -108208918 -6100260#6 -368796142#2 374249099#0 374249099#2 -6743656#15 -6743656#14 -6743656#13 -6743656#11 -6743656#9 -6743656#8 -6743656#7 -6743656#6 -148652003#2"/>
    </vehicle>
    <vehicle id="car_5" type="car__passenger" depart="1.50">
        <route edges="4860428#2 4860428#3 -6743656#8 -6743656#7 -6743656#6 -6743656#5 -6743656#4 -6743656#3 -6743656#2 -6743656#1 -6743656#0 -6094840#4 -6094840#3 -23592598#2 11528608#0 11528608#1 11528608#2 11528635 23855289#4"/>
    </vehicle>
    <vehicle id="car_6" type="car__passenger" depart="1.80">
        <route edges="108272782#0 108272782#2 108272782#3 108272782#4 108272782#5 545693552#2 545693552#3 545693552#4 545693552#5 4860438#0 4860438#2 4860438#3 4860438#4 4860438#5 4860438#7 4860438#9 4860438#10 4860438#11 4860438#12 4860438#13 4860438#15 4860438#16 4860438#17 4860438#18 4860438#19 4860438#20 4860438#21 4860438#22 4860438#23 4860438#24 4860438#25 4860438#26 -23855289#7 -23855289#6 -23855289#4 -11528635 -11528608#2 -11528608#1 -11528608#0"/>
    </vehicle>
    <vehicle id="car_7" type="car__passenger" depart="2.10">
        <route edges="13881187#2 13881187#3 13881187#4 374247437#0 556975357 374249088#1 -8013925#1 -8013925#0 4860438#7 4860438#9 4860438#10 4860438#11 4860438#12 4860438#13 4860438#15 4860438#16 4860438#17 4860438#18 4860438#19 4860438#20 4860438#21 4860438#22 4860438#23 4860438#24 4860438#25 4860438#26 15390366 19328195#0 19328195#1 19328195#2 -495414196#2 -495414196#1 -495414197#0 -495414199#0"/>
    </vehicle>
    <vehicle id="car_8" type="car__passenger" depart="2.40">
        <route edges="-1429007178 374247423#1 597896253#6 597896253#8 545693552#0 545693552#2 545693552#3 545693552#4 545693552#5 4860438#0 4860438#2 4860438#3 4860438#4 4860438#5 4860438#7 4860438#9 4860438#10 4860438#11 4860438#12 4860438#13 4860438#15 4860438#16 4860438#17 4860438#18 4860438#19 4860438#20 4860438#21 4860438#22 4860438#23 -23417665#5 -23417665#4 -23417665#3 -23417665#2 23417666 -6094840#0"/>
    </vehicle>
    <vehicle id="car_9" type="car__passenger" depart="2.70">
        <route edges="-108209932#0 -23915154#0 -23418538#1 -23418538#0 -23418540#1 -23418540#0 8571341#0 8571341#1 8571341#2 8571341#3 8571341#4 -19328193 -23855289#7 -23855289#6 -23855289#4 -11528635 -11528608#2 -11528608#1 547139152"/>
    </vehicle>
    <vehicle id="car_10" type="car__passenger" depart="3.00">
        <route edges="186444556#0 186444556#2 -496810973 -6100260#7 -6100260#6 -6100260#5 -6100260#4 -6100260#3 -6100260#1 -6100260#0 4860438#15 4860438#16 4860438#17 4860438#18 4860438#19 4860438#20 4860438#21 4860438#22 4860438#23 4860438#24 4860438#25 4860438#26 -23855289#7 -23855289#6 1276414374"/>
    </vehicle>
    <vehicle id="car_11" type="car__passenger" depart="3.30">
        <route edges="-374254559 -374249099#1 368796142#2 -6100260#5 -6100260#4 -6100260#3 -6100260#1 -6100260#0 4860438#15 4860438#16 4860438#17 4860438#18 4860438#19 4860438#20 4860438#21 4860438#22 5914873#0 5914873#2 5914873#3 5914873#4 5914873#6 23418540#0 23418540#1 556368820 23418538#1 -15390370#5 -15390370#4 108209928#1 108209928#2 108209928#3 -495414220#0"/>
    </vehicle>
    <vehicle id="car_12" type="car__passenger" depart="3.60">
        <route edges="-1525386236 545693552#4 545693552#5 4860438#0 4860438#2 4860438#3 4860438#4 4860438#5 4860438#7 4860438#9 4860438#10 4860438#11 4860438#12 4860438#13 4860438#15 4860438#16 4860438#17 4860438#18 4860438#19 4860438#20 4860438#21 4860438#22 5914873#0 5914873#2 5914873#3 5914873#4 5914873#6 23418540#0 23418540#1 556368820 23418538#1"/>
    </vehicle>
    <vehicle id="car_13" type="car__passenger" depart="3.90">
        <route edges="1494760251#2 1494760251#3 -108242702#5 -108242702#4 -108242702#3 23185037#0 23185037#2 -23915154#1 -23915154#0 -23418538#1 -23418538#0 -23418540#1 -23418540#0 -556900441 -5914873#4 -5914873#3 -5914873#2 -5914873#0 -4860438#22 -5914884#6 -5914884#5 -5914884#4 -5914884#3 -5914884#2 1245196885"/>
    </vehicle>
    <vehicle id="car_14" type="car__passenger" depart="4.20">
        <route edges="19328195#1 19328195#2 19328195#3 19328195#4 19328195#5 19328195#6 23418543#0 23418543#1 23418544 -23418536#0 -23418540#2 556368820 23418538#1 556902783 23915154#1 -23185037#2 -23185037#0 108242702#3 108242702#4 108242702#5"/>
    </vehicle>
    <vehicle id="car_15" type="car__passenger" depart="4.50">
        <route edges="-1377451100 -13881187#2 -13881187#1 -13881187#0 545693552#0 545693552#2 545693552#3 545693552#4 545693552#5 4860438#0 4860438#2 4860438#3 4860438#4 4860438#5 4860438#7 4860438#9 4860438#10 4860438#11 4860438#12 4860438#13 4860438#15 4860438#16 4860438#17 4860438#18 4860438#19 4860438#20 4860438#21 4860438#22 4860438#23 4860438#24 4860438#25 4860438#26 6094840#0 -23417666"/>
    </vehicle>
    <vehicle id="car_16" type="car__passenger" depart="4.80">
        <route edges="-13881187#2 -13881187#1 -13881187#0 545693552#0 545693552#2 545693552#3 545693552#4 545693552#5 4860438#0 4860438#2 4860438#3 4860438#4 4860438#5 4860438#7 4860438#9 4860438#10 4860438#11 4860438#12 4860438#13 4860438#15 4860438#16 4860438#17 4860438#18 4860438#19 4860438#20 4860438#21 -5914884#6 -5914884#5 -5914884#4 -5914884#3 23417665#0"/>
    </vehicle>
    <vehicle id="car_17" type="car__passenger" depart="5.10">
        <route edges="13881187#0 -8013925#4 -8013925#3 -496810972 4860438#4 4860438#5 4860438#7 4860438#9 4860438#10 4860438#11 4860438#12 4860438#13 4860438#15 4860438#16 4860438#17 4860438#18 4860438#19 4860438#20 4860438#21 -5914884#6 -5914884#5 -5914884#4 -5914884#3 -5914884#2 -5914884#1"/>
    </vehicle>
    <vehicle id="car_18" type="car__passenger" depart="5.40">
        <route edges="15390370#2 15390370#3 15390370#4 15390370#5 -23418538#1 -23418538#0 -23418540#1 -23418540#0 -556900441 -5914873#4 -5914873#3 -5914873#2 -5914873#0 -4860438#22 -4860438#21 -4860438#20 -4860438#19 -4860438#18 -4860438#17 -4860438#16 -4860438#15 6100260#0 6100260#1 6100260#3 6100260#4 374249095#0 374249095#1 536308988#1"/>
    </vehicle>
    <vehicle id="car_19" type="car__passenger" depart="5.70">
        <route edges="-374247424#0 -13881187#8 -13881187#7 -13881187#6 -13881187#5 -13881187#4 -13881187#3 -13881187#2 -13881187#1 -13881187#0 545693552#0 545693552#2 545693552#3 545693552#4 545693552#5 4860438#0 4860438#2 4860438#3 4860438#4 4860438#5 -108208918 -6100260#6 -368796142#2 374249099#0 374249099#2 -6743656#15 -6743656#14"/>
    </vehicle>
    <vehicle id="car_20" type="car__passenger" depart="6.00">
        <route edges="108243887#0 108243887#1 108242702#0 108242702#1 108242702#2 108242702#3 108242702#4 108242702#5 -1494760251#3 -1494760251#2 -1494760251#1 -1494760251#0 -548542956#8 -548542956#7 -548542956#6 -548542956#5 -548542956#4 -548542956#3 -548542956#1 -548542956#0 -13881187#8 -13881187#7 -13881187#6 -13881187#5 -13881187#4 -13881187#3 -13881187#2 -13881187#1 -13881187#0 545693552#0 545693552#2 545693552#3 545693552#4 545693552#5 4860438#0 4860438#2 4860438#3 4860438#4 4860438#5 4860438#7 4860438#9"/>
    </vehicle>
    <vehicle id="car_21" type="car__passenger" depart="6.30">
        <route edges="-548542956#1 -548542956#0 -13881187#8 -13881187#7 -13881187#6 -13881187#5 -13881187#4 -13881187#3 -13881187#2 -13881187#1 -13881187#0 545693552#0 545693552#2 545693552#3 545693552#4 545693552#5 4860438#0 4860438#2 4860438#3 4860438#4 4860438#5 4860438#7 4860438#9 4860438#10 4860438#11 4860438#12 4860438#13 4860438#15 4860438#16 4860438#17 4860438#18 4860438#19 4860438#20 4860438#21 4860438#22 4860438#23 4860438#24 4860438#25 4860438#26 15390366 19328195#0 19328195#1 19328195#2 19328195#3 19328195#4 19328195#5 19328195#6"/>
    </vehicle>
    <vehicle id="car_22" type="car__passenger" depart="6.60">
        <route edges="-15242152#1 -15242152#0 -11528612#0 11528635 23855289#4 23855289#5 23855289#7 -4860438#26 -4860438#25 -4860438#24 -4860438#23 -4860438#22 -4860438#21 -4860438#20 -4860438#19 -4860438#18 -4860438#17 23417672#0 23417672#1 23417672#2 -8625179#2 -8625179#1 368794775#1 368794775#2"/>
    </vehicle>
    <vehicle id="car_23" type="car__passenger" depart="6.90">
        <route edges="108209930#0 108209928#0 15390370#4 15390370#5 -23418538#1 -23418538#0 -23418540#1 -23418540#0 8571341#0 8571341#1 8571341#2 8571341#3 8571341#4 -19328193 6094840#0 6094840#1"/>
    </vehicle>
    <vehicle id="car_24" type="car__passenger" depart="7.20">
        <route edges="-537559372 -23418538#0 -23418540#1 -23418540#0 -556900441 -5914873#4 -5914873#3 -5914873#2 -5914873#0 -4860438#22 -4860438#21 -4860438#20 -4860438#19 -4860438#18 -4860438#17 -4860438#16 -4860438#15 -4860438#13 -4860438#12 -4860438#11 -4860438#10 -4860438#9 -108208915 -108208917#0"/>
    </vehicle>
    <vehicle id="car_25" type="car__passenger" depart="7.50">
        <route edges="-19328195#8 -19328195#7 -19328195#6 -19328195#5 -19328195#4 -19328195#3 -19328195#2 -19328195#1 -19328195#0 -19328193 -4860438#26 -4860438#25 -4860438#24 -4860438#23 -4860438#22 -4860438#21 -4860438#20 -4860438#19 -4860438#18 -4860438#17 -4860438#16 -4860438#15 -4860438#13 -4860438#12 -4860438#11 -4860438#10 -4860438#9 -4860438#7 -4860438#5 -4860438#4 -4860438#3 -4860438#2 -4860438#0 -545693552#5 -545693552#4 -545693552#3 -545693552#2 -545693552#0 13881187#0 13881187#1 13881187#2 13881187#3 1428967154#0 1428967154#2 -374247424#5 -374247424#4 374247425#0 1428967151"/>
    </vehicle>
    <vehicle id="car_26" type="car__passenger" depart="7.80">
        <route edges="495414199#0 495414197#0 495414196#1 495414196#2 -19328195#2 -19328195#1 -19328195#0 -19328193 -4860438#26 -4860438#25 -4860438#24 -4860438#23 -4860438#22 -4860438#21 -4860438#20 -4860438#19 -4860438#18 -4860438#17 -4860438#16 -4860438#15 -4860438#13 -4860438#12 -4860438#11 -4860438#10 -4860438#9 -4860438#7 -4860438#5 -4860438#4 -4860438#3 -4860438#2 -4860438#0 -545693552#5 -545693552#4 -545693552#3 -545693552#2 -108272782#5 -108272782#4 -108272782#3 -108272782#2"/>
    </vehicle>
    <vehicle id="car_27" type="car__passenger" depart="8.10">
        <route edges="537842922 -548542956#1 -548542956#0 -13881187#8 -13881187#7 -13881187#6 -13881187#5 -13881187#4 -13881187#3 -13881187#2 -13881187#1 -13881187#0 545693552#0 545693552#2 545693552#3 545693552#4 545693552#5 4860438#0 4860438#2 4860438#3 4860438#4 4860438#5 4860438#7 4860438#9 4860438#10 4860438#11 4860438#12 4860438#13 4860438#15 4860438#16 4860438#17 4860438#18 4860438#19 4860438#20 4860438#21 4860438#22 4860438#23 4860438#24 4860438#25 4860438#26 15390366 19328195#0 19328195#1 19328195#2 19328195#3 19328195#4 19328195#5 19328195#6 19328195#7 19328195#8 533314373#1"/>
    </vehicle>
    <vehicle id="car_28" type="car__passenger" depart="8.40">
        <route edges="556871777#0 556871777#1 556871777#2 -548542956#3 -548542956#1 -548542956#0 -13881187#8 -13881187#7 -13881187#6 -13881187#5 -13881187#4 -13881187#3 -13881187#2 -13881187#1 -13881187#0 545693552#0 545693552#2 545693552#3 545693552#4 545693552#5 4860438#0 4860438#2 4860438#3 4860438#4 4860438#5 4860438#7 4860438#9 4860438#10 4860438#11 4860438#12 4860438#13 4860438#15 4860438#16 4860438#17 4860438#18 4860438#19 4860438#20 4860438#21 4860438#22 4860438#23 -23417665#5 -23417665#4 -23417665#3 -23417665#2 -23417665#1"/>
    </vehicle>
    <vehicle id="car_29" type="car__passenger" depart="8.70">
        <route edges="-1494760251#3 -1494760251#2 -1494760251#1 -1494760251#0 -548542956#8 -548542956#7 -548542956#6 -548542956#5 -548542956#4 -548542956#3 -548542956#1 -548542956#0 -13881187#8 -13881187#7 -13881187#6 -13881187#5 -13881187#4 -13881187#3 -13881187#2 -13881187#1 -13881187#0 545693552#0 545693552#2 545693552#3 545693552#4 545693552#5 4860438#0 4860438#2 4860438#3 4860438#4 4860438#5 4860438#7 4860438#9 4860438#10 4860438#11 4860438#12 4860438#13 4860438#15 4860438#16 4860438#17 4860438#18 4860438#19 4860438#20 4860438#21 4860438#22 4860438#23 4860438#24 4860438#25 4860438#26 6094840#0 6094840#1 6094840#2 6094840#3 6094840#4"/>
    </vehicle>
    <vehicle id="car_30" type="car__passenger" depart="9.00">
        <route edges="374247430#0 374247430#1 374247431#0 374247431#1 23418534#0 -23417677 -7156718#2 -7156718#1 -7156718#0 4860438#16 4860438#17 4860438#18 4860438#19 4860438#20 4860438#21 4860438#22 4860438#23 4860438#24 4860438#25 4860438#26 15390366 19328195#0 19328195#1 19328195#2 -495414196#2 -495414196#1 543180145#0 543180145#1 543180145#2"/>
    </vehicle>
    <vehicle id="car_31" type="car__passenger" depart="9.30">
        <route edges="556902793 -537470481#1 -537470481#0 23185037#2 -23915154#1 -23915154#0 -23418538#1 -23418538#0 -23418540#1 -23418540#0 8571341#0 8571341#1 8571341#2 8571341#3 8571341#4 -19328193 6094840#0 6094840#1 6094840#2 -23592598#2 11528608#0"/>
    </vehicle>
    <vehicle id="car_32" type="car__passenger" depart="9.60">
        <route edges="-19328195#5 -19328195#4 -19328195#3 -19328195#2 -19328195#1 -19328195#0 -19328193 -4860438#26 -4860438#25 -4860438#24 -4860438#23 -4860438#22 -4860438#21 -4860438#20 -4860438#19 -4860438#18 -4860438#17 23417672#0 23417672#1 23417672#2 8625179#4"/>
    </vehicle>
    <vehicle id="car_33" type="car__passenger" depart="9.90">
        <route edges="-543180145#1 -543180145#0 495414196#1 495414196#2 -19328195#2 -19328195#1 -19328195#0 -19328193 -4860438#26 -4860438#25 -4860438#24 -4860438#23 -4860438#22 -4860438#21 -4860438#20 -4860438#19 -4860438#18 -4860438#17 -4860438#16 -4860438#15 -4860438#13 -4860438#12 -4860438#11 -4860438#10 -4860438#9 -4860438#7 -4860438#5 -4860438#4 -4860438#3 -4860438#2 -4860438#0 -545693552#5 -545693552#4 -545693552#3 -545693552#2 -545693552#0 -597896253#8 -597896253#6 -597896253#5 -597896253#4 -597896253#3 -597896253#2 374247420#0 553346961"/>
    </vehicle>
    <vehicle id="car_34" type="car__passenger" depart="10.20">
        <route edges="597896253#4 597896253#5 597896253#6 597896253#8 545693552#0 545693552#2 545693552#3 545693552#4 545693552#5 4860438#0 4860438#2 4860438#3 4860438#4 4860438#5 4860438#7 4860438#9 4860438#10 4860438#11 4860438#12 4860438#13 4860438#15 4860438#16 4860438#17 4860438#18 4860438#19 4860438#20 4860438#21 4860438#22 4860438#23 4860438#24 4860438#25 4860438#26 15390366 19328195#0 19328195#1 19328195#2 19328195#3 19328195#4 19328195#5 19328195#6 19328195#7 19328195#8 533314373#1"/>
    </vehicle>
    <vehicle id="car_35" type="car__passenger" depart="10.50">
        <route edges="-556387478#1 -556387478#0 -23417672#2 -23417672#1 -23417672#0 4860438#17 4860438#18 4860438#19 4860438#20 4860438#21 4860438#22 5914873#0 5914873#2 5914873#3 5914873#4 5914873#6 23418540#0 23418540#1 556368820 23418538#1 -15390370#5 -15390370#4 -108209928#0 -495414200 23185037#4 108242702#1 -23915155"/>
    </vehicle>
    <vehicle id="car_36" type="car__passenger" depart="10.80">
        <route edges="-23418538#0 -23418540#1 -23418540#0 -556900441 -5914873#4 -5914873#3 -5914873#2 -5914873#0 -4860438#22 -4860438#21 -4860438#20 -4860438#19 -4860438#18 -4860438#17 -4860438#16 -4860438#15 6100260#0 6100260#1 6100260#3 6100260#4 6100260#5 6100260#6 6100260#7 496810973 -186444556#2"/>
    </vehicle>
    <vehicle id="car_37" type="car__passenger" depart="11.10">
        <route edges="8571341#2 8571341#3 8571341#4 -19328193 -4860438#26 -4860438#25 -4860438#24 -4860438#23 -4860438#22 -4860438#21 -4860438#20 -4860438#19 -4860438#18 -4860438#17 -4860438#16 -4860438#15 -4860438#13 -4860438#12 -4860438#11 -4860438#10 -4860438#9 -4860438#7 -4860438#5 -4860438#4 -4860438#3 -4860438#2 -4860438#0 -545693552#5 -545693552#4 -545693552#3 -545693552#2 -545693552#0 13881187#0 13881187#1 13881187#2 13881187#3 1428967154#0 1428967154#2 374247424#6 597896253#2 597896253#3 597896253#4"/>
    </vehicle>
    <vehicle id="car_38" type="car__passenger" depart="11.40">
        <route edges="-374254550#1 -556388639 374254547#1 8625179#1 8625179#2 -23417672#2 -23417672#1 -23417672#0 4860438#17 4860438#18 4860438#19 4860438#20 4860438#21 4860438#22 5914873#0 5914873#2 5914873#3 5914873#4 5914873#6 23418540#0 23418540#1 556368820 23418538#1 -15390370#5 -15390370#4 -15390370#3"/>
    </vehicle>
    <vehicle id="car_39" type="car__passenger" depart="11.70">
        <route edges="-108209928#0 -495414200 23185037#4 108242702#1 108242702#2 108242702#3 108242702#4 108242702#5 -1494760251#3 -1494760251#2 -1494760251#1 -1494760251#0 -548542956#8 -548542956#7 -548542956#6 -548542956#5 -548542956#4 -548542956#3 -548542956#1 -548542956#0 374247424#0 374247424#2 374247424#3 374247424#4 374247424#5 -1428967154#2 -1428967154#0 13881187#4"/>
    </vehicle>
    <vehicle id="car_40" type="car__passenger" depart="12.00">
        <route edges="1429186328 597896253#4 597896253#5 597896253#6 597896253#8 545693552#0 545693552#2 545693552#3 545693552#4 545693552#5 4860438#0 4860438#2 4860438#3 4860438#4 4860438#5 4860438#7 4860438#9 4860438#10 4860438#11 4860438#12 4860438#13 4860438#15 4860438#16 4860438#17 4860438#18 4860438#19 4860438#20 4860438#21 4860438#22 4860438#23 -23417665#5 -23417665#4 -23417665#3 -23417665#2 23417666 -6094840#0 -4860438#26"/>
    </vehicle>
    <vehicle id="car_41" type="car__passenger" depart="12.30">
        <route edges="-108208920#0 108208921 108208920#1 -6100260#1 -6100260#0 -4860438#13 -4860438#12 -4860438#11 -4860438#10 -4860438#9 -4860438#7 -4860438#5 -4860438#4 -4860438#3 -4860438#2 -4860438#0 -545693552#5 -545693552#4 -545693552#3 -545693552#2 -545693552#0 13881187#0 13881187#1 13881187#2 13881187#3 13881187#4 13881187#5 13881187#6 13881187#7 13881187#8 13881187#9 548542956#1 548542956#3 548542956#4 548542956#5 548542956#6 548542956#7 548542956#8 1494760251#0 1494760251#1 1494760251#2 1494760251#3 -108242702#5 -108242702#4 -108242702#3 -108242702#2 -108242702#1"/>
    </vehicle>
    <vehicle id="car_42" type="car__passenger" depart="12.60">
        <route edges="6094840#2 -23592598#2 11528608#0 11528608#1 11528608#2 11528635 23855289#4 23855289#5 23855289#7 -4860438#26 -4860438#25 -4860438#24 -4860438#23 -4860438#22 -4860438#21 -4860438#20 -4860438#19 -4860438#18 -4860438#17 -4860438#16 -4860438#15 -4860438#13 -4860438#12 -4860438#11 -4860438#10 -4860438#9 -4860438#7 -4860438#5 -4860438#4 -4860438#3 -4860438#2 -4860438#0 -545693552#5 -545693552#4 -545693552#3 -545693552#2 -108272782#5 -108272782#4 -108272782#3 -108272782#2 108272785#0"/>
    </vehicle>
    <vehicle id="car_43" type="car__passenger" depart="12.90">
        <route edges="11528635 23855289#4 23855289#5 23855289#7 15390366 -8571341#4 -8571341#3 -8571341#2 -8571341#1 -8571341#0 23418540#0 23418540#1 556368820 23418538#1 556902783 23915154#1 -23185037#2 -537470482 537470481#1 -556902793"/>
    </vehicle>
    <vehicle id="car_44" type="car__passenger" depart="13.20">
        <route edges="1494760251#0 1494760251#1 536860773 51149925#2 -556902784 -23418538#1 -23418538#0 23418540#2 23418536#0 -23418544 -23418543#1 -23418543#0 -19328195#6 -19328195#5 -19328195#4 8049874#0 8049874#1 8049874#2 1096963961 -1096963959"/>
    </vehicle>
    <vehicle id="car_45" type="car__passenger" depart="13.50">
        <route edges="-28111393 -19328195#7 23418543#0 23418543#1 23418544 -23418536#0 -23418540#2 556368820 23418538#1 15390370#6 -51149925#2 -51149925#1 -51149925#0 -548542956#8 -548542956#7 537306426#0 537306426#1 537306424#0 537306424#1"/>
    </vehicle>
    <vehicle id="car_46" type="car__passenger" depart="13.80">
        <route edges="-5914884#6 556374621 4860438#21 4860438#22 5914873#0 5914873#2 5914873#3 5914873#4 5914873#6 23418540#0 23418540#1 556368820 23418538#1 556902783 23915154#1 -23185037#2 -23185037#0 108242702#3 108242702#4 108242702#5"/>
    </vehicle>
    <vehicle id="car_47" type="car__passenger" depart="14.10">
        <route edges="4860438#26 6094840#0 6094840#1 6094840#2 6094840#3 6094840#4 6743656#0 6743656#1 6743656#2 6743656#3 6743656#4 6743656#5 6743656#6 6743656#7 6743656#8 6743656#9 6743656#11 6743656#13 6743656#14 6743656#15 -368793531#3 -368793531#2 -368793531#1 -368793531#0 331397686#1 331397686#2"/>
    </vehicle>
    <vehicle id="car_48" type="car__passenger" depart="14.40">
        <route edges="-374254542#0 374249101#2 -374249101#0 6743656#14 6743656#15 -374249099#2 -374249099#1 368796142#2 6100260#6 108208918 -4860438#5 -4860438#4 -4860438#3 -4860438#2 -4860438#0 -545693552#5 -545693552#4 -545693552#3 -545693552#2 -545693552#0 -597896253#8 -597896253#6 -597896253#5 -597896253#4 -597896253#3 -1429186329"/>
    </vehicle>
    <vehicle id="car_49" type="car__passenger" depart="14.70">
        <route edges="-4860438#24 -4860438#23 -4860438#22 -4860438#21 -4860438#20 -4860438#19 -4860438#18 -4860438#17 -4860438#16 -4860438#15 -4860438#13 -4860438#12 -4860438#11 -4860438#10 -4860438#9 -4860438#7 -4860438#5 -4860438#4 -4860438#3 -4860438#2 -4860438#0 -545693552#5 -545693552#4 -545693552#3 -545693552#2 -545693552#0 13881187#0 13881187#1 13881187#2 13881187#3 13881187#4 13881187#5 13881187#6 13881187#7 13881187#8 374247424#0 374247424#2 374247424#3 374247424#4 374247424#5"/>
    </vehicle>
    <vehicle id="car_50" type="car__passenger" depart="15.00">
        <route edges="-8049874#0 -19328195#3 -19328195#2 -19328195#1 -19328195#0 -19328193 -4860438#26 -4860438#25 -4860438#24 -4860438#23 -4860438#22 -4860438#21 -4860438#20 -4860438#19 -4860438#18 -4860438#17 -4860438#16 -4860438#15 -4860438#13 -4860438#12 -4860438#11 -4860438#10 -4860438#9 -108208915"/>
    </vehicle>
    <vehicle id="car_51" type="car__passenger" depart="15.30">
        <route edges="23185037#4 108242702#1 108242702#2 108242702#3 108242702#4 108242702#5 -1494760251#3 -1494760251#2 -1494760251#1 -1494760251#0 -548542956#8 -548542956#7 -548542956#6 -548542956#5 -548542956#4 -548542956#3 -548542956#1 -548542956#0 -13881187#8 -13881187#7 -13881187#6 -13881187#5 -13881187#4 -13881187#3 -13881187#2 -13881187#1 -13881187#0 -356549965 -108272782#3 -108272782#2 108272785#0 108272788"/>
    </vehicle>
    <vehicle id="car_52" type="car__passenger" depart="15.60">
        <route edges="-495414220#2 495414217#0 495414217#1 15390370#3 15390370#4 15390370#5 15390370#6 -51149925#2 -51149925#1 -51149925#0 -548542956#8 -548542956#7 -548542956#6 -548542956#5 -548542956#4 -548542956#3 -548542956#1 -548542956#0 -13881187#8 -13881187#7 -13881187#6 -13881187#5 -13881187#4 -13881187#3 -13881187#2 -13881187#1 -13881187#0 545693552#0 545693552#2"/>
    </vehicle>
    <vehicle id="car_53" type="car__passenger" depart="15.90">
        <route edges="-495414220#2 495414217#0 495414217#1 15390370#3 15390370#4 15390370#5 -23418538#1 -23418538#0 -23418540#1 -23418540#0 8571341#0 8571341#1 8571341#2 8571341#3 8571341#4 -19328193 -23855289#7 -23855289#6 -23855289#4 -11528635 11528612#0 11528612#1"/>
    </vehicle>
    <vehicle id="car_54" type="car__passenger" depart="16.20">
        <route edges="-6743656#0 -6094840#4 -6094840#3 -6094840#2 -6094840#1 -6094840#0 -4860438#26 -4860438#25 -4860438#24 -4860438#23 -4860438#22 -4860438#21 -4860438#20 -4860438#19 -4860438#18 -4860438#17 -4860438#16 -4860438#15 -4860438#13 -4860438#12 -4860438#11 -4860438#10 -4860438#9 -4860438#7 8013925#0 8013925#1 122047017#0 122047017#1 122047017#2 122047017#3 374249092#0 374249092#1"/>
    </vehicle>
    <vehicle id="car_55" type="car__passenger" depart="16.50">
        <route edges="533804635 4860438#5 4860438#7 4860438#9 4860438#10 4860438#11 4860438#12 4860438#13 4860438#15 4860438#16 4860438#17 4860438#18 4860438#19 4860438#20 4860438#21 4860438#22 5914873#0 5914873#2 5914873#3 5914873#4 5914873#6 23418540#0 23418540#1 23418540#2 23418536#0 -23418544"/>
    </vehicle>
    <vehicle id="car_56" type="car__passenger" depart="16.80">
        <route edges="-557849479 6743656#7 6743656#8 6743656#9 6743656#11 6743656#13 6743656#14 6743656#15 -374249099#2 -374249099#1 368796142#2 6100260#6 108208918 -4860438#5 -4860438#4 -4860438#3 -4860438#2 -4860438#0 -545693552#5 -545693552#4 -545693552#3 -545693552#2 -545693552#0 13881187#0 13881187#1 13881187#2 13881187#3 1428967154#0 1428967154#2"/>
    </vehicle>
    <vehicle id="car_57" type="car__passenger" depart="17.10">
        <route edges="548542956#7 548542956#8 51149925#0 51149925#1 -536860773 -1494760251#1 -1494760251#0 -548542956#8 -548542956#7 -548542956#6 -548542956#5 -548542956#4 -548542956#3 -548542956#1 -548542956#0 -13881187#8 -13881187#7 -13881187#6 -13881187#5 -13881187#4 -13881187#3 -13881187#2 -13881187#1 -13881187#0 545693552#0 545693552#2 545693552#3 545693552#4 545693552#5 4860438#0 4860438#2 4860438#3 4860438#4 4860438#5 -108208918 -6100260#6 -368796142#2 374249099#0 374249099#2 -368793531#3 -368793531#2 -374254542#1"/>
    </vehicle>
    <vehicle id="car_58" type="car__passenger" depart="17.40">
        <route edges="-548542956#8 -548542956#7 -548542956#6 -548542956#5 -548542956#4 -548542956#3 -548542956#1 -548542956#0 -13881187#8 -13881187#7 -13881187#6 -13881187#5 -13881187#4 -13881187#3 -13881187#2 -13881187#1 -13881187#0 545693552#0 545693552#2 545693552#3 545693552#4 545693552#5 4860438#0 4860438#2 4860438#3 4860438#4 4860438#5 4860438#7 4860438#9 4860438#10 4860438#11 4860438#12 4860438#13 6100260#0 -8625179#5 -8625179#4 -8625179#2 -8625179#1 -8625179#0 -556388609 -6743656#2 -6743656#1 -6743656#0"/>
    </vehicle>
    <vehicle id="car_59" type="car__passenger" depart="17.70">
        <route edges="8013925#2 8013925#3 8013925#4 13881187#1 13881187#2 13881187#3 13881187#4 13881187#5 13881187#6 13881187#7 13881187#8 13881187#9 548542956#1 548542956#3 548542956#4 548542956#5 548542956#6 548542956#7 548542956#8 51149925#0 51149925#1 51149925#2 -556902784 -15390370#5 -15390370#4 -15390370#3 -495414217#1 -495414217#0 -495414220#1 -108209928#3"/>
    </vehicle>
    <vehicle id="car_60" type="car__passenger" depart="18.00">
        <route edges="-331397686#1 368793531#0 368793531#1 -374254542#1 368793531#3 -374249099#2 -374249099#1 368796142#2 -6100260#5 -6100260#4 -6100260#3 -6100260#1 -6100260#0 4860438#15 4860438#16 4860438#17 4860438#18 4860438#19 4860438#20 4860438#21 4860438#22 5914873#0 5914873#2 5914873#3 5914873#4 5914873#6 23418540#0 23418540#1 23418540#2"/>
    </vehicle>
    <vehicle id="car_61" type="car__passenger" depart="18.30">