<?xml version="1.0" encoding="UTF-8"?>

<!-- generated on 2026-07-01 15:09:04.262962 by Eclipse SUMO randomTrips.py v1.27.0
<configuration>
    <net-file value="galle.net.xml"/>
    <additional-files value="vtypes.add.xml"/>
    <output-trip-file value="trips_van.trips.xml"/>
    <route-file value="trips_van.rou.xml"/>
    <vtype-output value="van"/>
    <prefix value="van_"/>
    <vehicle-class value="delivery"/>
    <fringe-factor value="1"/>
    <allow-fringe.min-length value="1000.0"/>
    <seed value="45"/>
    <min-distance value="1200.0"/>
    <max-distance value="4000.0"/>
    <end value="30.0"/>
    <period value="1.2"/>
</configuration>
-->

<!-- generated on 2026-07-01T15:09:04.235672+05:30 by Eclipse SUMO duarouter 1.27.0
<duarouterConfiguration xmlns:xsi="http://www.w3.org/2001/XMLSchema-instance" xsi:noNamespaceSchemaLocation="http://sumo.dlr.de/xsd/duarouterConfiguration.xsd">

    <input>
        <net-file value="galle.net.xml"/>
        <additional-files value="vtypes.add.xml,van"/>
        <route-files value="trips_van.trips.xml"/>
    </input>

    <output>
        <output-file value="trips_van.rou.xml"/>
        <vtype-output value="van"/>
        <alternatives-output value="NUL"/>
    </output>

    <processing>
        <routing-threads value="16"/>
    </processing>

    <time>
        <begin value="0.0"/>
        <end value="30.0"/>
    </time>

    <report>
        <no-warnings value="true"/>
        <ignore-errors value="true"/>
        <no-step-log value="true"/>
    </report>

</duarouterConfiguration>
-->

<routes xmlns:xsi="http://www.w3.org/2001/XMLSchema-instance" xsi:noNamespaceSchemaLocation="http://sumo.dlr.de/xsd/routes_file.xsd">
    <vehicle id="van_0" type="van__delivery" depart="0.00">
        <route edges="-374249101#1 -374249101#0 6743656#14 6743656#15 -374249099#2 -374249099#1 368796142#2 6100260#6 108208918 -4860438#5 -4860438#4 -4860438#3 -4860438#2 -4860438#0 -545693552#5 -545693552#4 -545693552#3 -545693552#2 -108272782#5 -108272782#4 -108272782#3 -108272782#2 108272785#0 108272788"/>
    </vehicle>
    <vehicle id="van_1" type="van__delivery" depart="1.20">
        <route edges="-374254549 -368794775#1 8625179#1 8625179#2 -23417672#2 -23417672#1 -23417672#0 4860438#17 4860438#18 4860438#19 4860438#20 4860438#21 4860438#22 4860438#23 4860438#24 4860438#25 4860438#26 15390366 19328195#0 19328195#1 19328195#2 19328195#3 19328195#4 19328195#5 19328195#6 23418543#0 -495414221 -23418543#2 -23418543#1 -23418543#0 -19328195#6"/>
    </vehicle>
    <vehicle id="van_2" type="van__delivery" depart="2.40">
        <route edges="-108242702#3 23185037#0 23185037#2 -23915154#1 -23915154#0 -23418538#1 -23418538#0 -23418540#1 -23418540#0 8571341#0 8571341#1 8571341#2 8571341#3 8571341#4 -19328193 6094840#0 6094840#1 6094840#2 -23592598#2 -23592598#1 23575436"/>
    </vehicle>
    <vehicle id="van_3" type="van__delivery" depart="3.60">
        <route edges="23855289#5 23855289#7 -4860438#26 -4860438#25 -4860438#24 -4860438#23 -4860438#22 -4860438#21 -4860438#20 -4860438#19 -4860438#18 -4860438#17 -4860438#16 -4860438#15 -4860438#13 -4860438#12 -4860438#11 -4860438#10 -4860438#9 -4860438#7 -4860438#5 -4860438#4 -4860438#3 -4860438#2 -4860438#0 -545693552#5 -545693552#4 -545693552#3 -545693552#2 -545693552#0 13881187#0 13881187#1 13881187#2 13881187#3 13881187#4 13881187#5 13881187#6 13881187#7 13881187#8 374247424#0 -374247427#1"/>
    </vehicle>
    <vehicle id="van_4" type="van__delivery" depart="4.80">
        <route edges="495414196#2 -19328195#2 -19328195#1 -19328195#0 -19328193 6094840#0 6094840#1 6094840#2 6094840#3 6094840#4 6743656#0 6743656#1 6743656#2 6743656#3 6743656#4 6743656#5 6743656#6 6743656#7 6743656#8 6743656#9 6743656#11 6743656#13 374249101#0 374249101#1"/>
    </vehicle>
    <vehicle id="van_5" type="van__delivery" depart="6.00">
        <route edges="-13881187#2 -13881187#1 -13881187#0 545693552#0 545693552#2 545693552#3 545693552#4 545693552#5 4860438#0 4860438#2 4860438#3 4860438#4 4860438#5 -108208918 -6100260#6 -368796142#2 374249099#0 374249099#2 -6743656#15 -6743656#14 -6743656#13 -6743656#11 -6743656#9"/>
    </vehicle>
    <vehicle id="van_6" type="van__delivery" depart="7.20">
        <route edges="368794775#2 368794775#3 -374254548#0 -556387478#0 8625179#4 8625179#5 -6100260#0 -4860438#13 -4860438#12 -4860438#11 -4860438#10 -4860438#9 -4860438#7 -4860438#5 -4860438#4 -4860438#3 -4860438#2 -4860438#0 -545693552#5 -545693552#4 -545693552#3 -545693552#2 -545693552#0 13881187#0 13881187#1 13881187#2 13881187#3 13881187#4 13881187#5 13881187#6 13881187#7 13881187#8 13881187#9 548542956#1 -537842922"/>
    </vehicle>
    <vehicle id="van_7" type="van__delivery" depart="8.40">
        <route edges="108224672#1 -548542956#4 -548542956#3 -548542956#1 -548542956#0 -13881187#8 -13881187#7 -13881187#6 -13881187#5 -13881187#4 -13881187#3 -13881187#2 -13881187#1 -13881187#0 545693552#0 545693552#2 545693552#3 545693552#4 545693552#5 4860438#0 4860438#2 4860438#3 4860438#4 4860438#5 4860438#7 4860438#9 4860438#10 4860438#11 4860438#12 4860438#13 4860438#15 4860438#16 4860438#17 4860438#18 4860438#19 4860438#20 4860438#21 4860438#22 4860438#23 4860438#24 4860438#25 4860438#26 -23855289#7 -23855289#6 -23855289#4 -11528635 -11528608#2 -11528608#1 -11528608#0"/>
    </vehicle>
    <vehicle id="van_8" type="van__delivery" depart="9.60">
        <route edges="-548542956#8 -548542956#7 -548542956#6 -548542956#5 -548542956#4 -548542956#3 -548542956#1 -548542956#0 -13881187#8 -13881187#7 -13881187#6 -13881187#5 -13881187#4 -13881187#3 -13881187#2 -13881187#1 -13881187#0 545693552#0 545693552#2 545693552#3 545693552#4 545693552#5 4860438#0 4860438#2 4860438#3 4860438#4 4860438#5 4860438#7 4860438#9 4860438#10 4860438#11 4860438#12 4860438#13 4860438#15 4860438#16 4860438#17 4860438#18 4860438#19 4860438#20 4860438#21 4860438#22 4860438#23 -23417665#5 -23417665#4 -23417665#3 543183052"/>
    </vehicle>
    <vehicle id="van_9" type="van__delivery" depart="10.80">
        <route edges="545693552#2 545693552#3 545693552#4 545693552#5 4860438#0 4860438#2 4860438#3 4860438#4 4860438#5 4860438#7 4860438#9 4860438#10 4860438#11 4860438#12 4860438#13 4860438#15 4860438#16 4860438#17 4860438#18 4860438#19 4860438#20 4860438#21 4860438#22 5914873#0 5914873#2 5914873#3 5914873#4 5914873#6 23418540#0 23418540#1 23418540#2 23418536#0 23418536#1"/>
    </vehicle>
    <vehicle id="van_10" type="van__delivery" depart="12.00">
        <route edges="495414197#0 495414196#1 495414196#2 -19328195#2 -19328195#1 -19328195#0 -19328193 -4860438#26 -4860438#25 -4860438#24 -4860438#23 -4860438#22 -4860438#21 -4860438#20 -4860438#19 -4860438#18 -4860438#17 -4860438#16 -4860438#15 6100260#0 6100260#1 6100260#3 6100260#4 6100260#5 6100260#6 6100260#7 6100260#8 -374254563 -6100260#9 -6100260#8 -6100260#7"/>
    </vehicle>
    <vehicle id="van_11" type="van__delivery" depart="13.20">
        <route edges="-545693552#4 -545693552#3 -545693552#2 -545693552#0 -356549965 108272782#4 108272782#5 545693552#2 545693552#3 545693552#4 545693552#5 4860438#0 4860438#2 4860438#3 4860438#4 4860438#5 4860438#7 4860438#9 4860438#10 4860438#11 4860438#12 4860438#13 4860438#15 4860438#16 4860438#17 4860438#18 4860438#19 4860438#20 4860438#21 -5914884#6 -5914884#5 -5914884#4 -5914884#3 -5914884#2 -5914884#1 -5914884#0 -6094840#1"/>
    </vehicle>
    <vehicle id="van_12" type="van__delivery" depart="14.40">
        <route edges="-374247427#0 -374247424#0 -13881187#8 -13881187#7 -13881187#6 -13881187#5 -13881187#4 -13881187#3 -13881187#2 -13881187#1 -13881187#0 545693552#0 545693552#2 545693552#3 545693552#4 545693552#5 4860438#0 4860438#2 4860438#3 4860438#4 4860438#5 4860438#7 4860438#9 4860438#10 4860438#11 4860438#12 4860438#13 4860438#15 4860438#16 4860438#17 4860438#18 4860438#19 4860438#20 4860438#21 -5914884#6 -5914884#5 -5914884#4"/>
    </vehicle>
    <vehicle id="van_13" type="van__delivery" depart="15.60">
        <route edges="536860773 51149925#2 -556902784 -23418538#1 -23418538#0 -23418540#1 -23418540#0 8571341#0 8571341#1 8571341#2 8571341#3 8571341#4 -19328193 -23855289#7 -23855289#6 -23855289#4 -23855289#3 28185567"/>
    </vehicle>
    <vehicle id="van_14" type="van__delivery" depart="16.80">
        <route edges="11528608#0 11528608#1 11528608#2 11528635 23855289#4 23855289#5 23855289#7 -4860438#26 -4860438#25 -4860438#24 -4860438#23 -4860438#22 -4860438#21 -4860438#20 -4860438#19 -4860438#18 -4860438#17 -4860438#16 -4860438#15 -4860438#13 -4860438#12 -4860438#11 -4860438#10 -4860438#9 -4860438#7 -4860438#5 -4860438#4 -4860438#3 -4860438#2 -4860438#0 -545693552#5 -545693552#4 -545693552#3 -545693552#2 -545693552#0 -597896253#8 -597896253#6 -597896253#5 -597896253#4 -597896253#3"/>
    </vehicle>
    <vehicle id="van_15" type="van__delivery" depart="18.00">
        <route edges="8625179#4 8625179#5 -6100260#0 4860438#15 4860438#16 4860438#17 4860438#18 4860438#19 4860438#20 4860438#21 4860438#22 5914873#0 5914873#2 5914873#3 5914873#4 5914873#6 23418540#0 23418540#1 556368820 23418538#1 556902783 23915154#1 23185037#3 495414200 108209928#0"/>
    </vehicle>
    <vehicle id="van_16" type="van__delivery" depart="19.20">
        <route edges="556388639 374254550#1 8625179#0 8625179#1 8625179#2 -23417672#2 -23417672#1 -23417672#0 4860438#17 4860438#18 4860438#19 4860438#20 4860438#21 4860438#22 4860438#23 4860438#24 4860438#25 4860438#26 15390366 19328195#0 19328195#1 19328195#2 19328195#3 19328195#4"/>
    </vehicle>
    <vehicle id="van_17" type="van__delivery" depart="20.40">
        <route edges="23417665#3 23417665#4 23417665#5 -4860438#23 -4860438#22 -4860438#21 -4860438#20 -4860438#19 -4860438#18 -4860438#17 -4860438#16 7156718#0 7156718#1 7156718#2 23417677 -23418534#0 -374247431#1 -374247431#0 -374247430#2 -374247430#0 -548542956#0 -13881187#8 -13881187#7"/>
    </vehicle>
    <vehicle id="van_18" type="van__delivery" depart="21.60">
        <route edges="-374247420#1 -374247420#0 597896253#2 597896253#3 597896253#4 597896253#5 597896253#6 597896253#8 545693552#0 545693552#2 545693552#3 545693552#4 545693552#5 4860438#0 4860438#2 4860438#3 4860438#4 4860438#5 -108208918 -6100260#6 -368796142#2 374249099#0 374249099#2 -6743656#15 -6743656#14 -6743656#13 -6743656#11 -6743656#9 -6743656#8 -6743656#7"/>
    </vehicle>
    <vehicle id="van_19" type="van__delivery" depart="22.80">
        <route edges="-548542956#3 -548542956#1 -548542956#0 -13881187#8 -13881187#7 -13881187#6 -13881187#5 -13881187#4 -13881187#3 -13881187#2 -13881187#1 -13881187#0 545693552#0 545693552#2 545693552#3 545693552#4 545693552#5 4860438#0 4860438#2 4860438#3 4860438#4 4860438#5 4860438#7 4860438#9 4860438#10 4860438#11 4860438#12 4860438#13 4860438#15 4860438#16 4860438#17 4860438#18 4860438#19 4860438#20 4860438#21 -5914884#6 -5914884#5 -5914884#4 -5914884#3 23417665#0 23417665#1"/>
    </vehicle>
    <vehicle id="van_20" type="van__delivery" depart="24.00">
        <route edges="-537841945 23855289#7 -4860438#26 -4860438#25 -4860438#24 -4860438#23 -4860438#22 -4860438#21 -4860438#20 -4860438#19 -4860438#18 -4860438#17 -4860438#16 -4860438#15 -4860438#13 -4860438#12 -4860438#11 -4860438#10 -4860438#9 -4860438#7 -108208918"/>
    </vehicle>
    <vehicle id="van_21" type="van__delivery" depart="25.20">
        <route edges="-19328195#7 -19328195#6 -19328195#5 -19328195#4 -19328195#3 -19328195#2 -19328195#1 -19328195#0 -19328193 6094840#0 6094840#1 6094840#2 6094840#3 6094840#4 6743656#0 148652003#0 148652003#1"/>
    </vehicle>
    <vehicle id="van_22" type="van__delivery" depart="26.40">
        <route edges="-556368821 -543180145#1 -543180145#0 495414196#1 495414196#2 -19328195#2 -19328195#1 -19328195#0 -19328193 -4860438#26 -4860438#25 -4860438#24 -4860438#23 -4860438#22 -4860438#21 -4860438#20 -4860438#19 -4860438#18 -4860438#17 -4860438#16 -4860438#15 6100260#0 6100260#1 6100260#3 6100260#4 6100260#5 -368796142#2"/>
    </vehicle>
    <vehicle id="van_23" type="van__delivery" depart="27.60">
        <route edges="-8013925#0 4860438#7 4860438#9 4860438#10 4860438#11 4860438#12 4860438#13 4860438#15 4860438#16 4860438#17 4860438#18 4860438#19 4860438#20 4860438#21 4860438#22 4860438#23 4860438#24 4860438#25 4860438#26 6094840#0 6094840#1 6094840#2 -23592598#2 11528608#0 11528608#1 11528608#2 11528635 23855289#4 23855289#5 23855289#7"/>
    </vehicle>
    <vehicle id="van_24" type="van__delivery" depart="28.80">
        <route edges="11528608#2 11528635 23855289#4 23855289#5 23855289#7 -4860438#26 -4860438#25 -4860438#24 -4860438#23 -4860438#22 -4860438#21 -4860438#20 -4860438#19 -4860438#18 -4860438#17 -4860438#16 -4860438#15 6100260#0 6100260#1 -108208920#1 -108208921"/>
    </vehicle>
</routes>
