<?xml version="1.0" encoding="UTF-8"?>

<!-- generated on 2026-07-01 15:09:03.455337 by Eclipse SUMO randomTrips.py v1.27.0
<configuration>
    <net-file value="galle.net.xml"/>
    <additional-files value="vtypes.add.xml"/>
    <output-trip-file value="trips_lorry.trips.xml"/>
    <route-file value="trips_lorry.rou.xml"/>
    <vtype-output value="lorry"/>
    <prefix value="lorry_"/>
    <vehicle-class value="truck"/>
    <fringe-factor value="1"/>
    <allow-fringe.min-length value="1000.0"/>
    <seed value="47"/>
    <min-distance value="1200.0"/>
    <max-distance value="4000.0"/>
    <end value="30.0"/>
    <period value="1.2"/>
</configuration>
-->

<!-- generated on 2026-07-01T15:09:03.429926+05:30 by Eclipse SUMO duarouter 1.27.0
<duarouterConfiguration xmlns:xsi="http://www.w3.org/2001/XMLSchema-instance" xsi:noNamespaceSchemaLocation="http://sumo.dlr.de/xsd/duarouterConfiguration.xsd">

    <input>
        <net-file value="galle.net.xml"/>
        <additional-files value="vtypes.add.xml,lorry"/>
        <route-files value="trips_lorry.trips.xml"/>
    </input>

    <output>
        <output-file value="trips_lorry.rou.xml"/>
        <vtype-output value="lorry"/>
        <alternatives-output value="NUL"/>
    </output>

    <processing>
        <routing-threads value="16"/>
    </processing>

    <time>
        <begin value="0.0"/>
        <end value="30.0"/>
    </time>

    <report>
        <no-warnings value="true"/>
        <ignore-errors value="true"/>
        <no-step-log value="true"/>
    </report>

</duarouterConfiguration>
-->

<routes xmlns:xsi="http://www.w3.org/2001/XMLSchema-instance" xsi:noNamespaceSchemaLocation="http://sumo.dlr.de/xsd/routes_file.xsd">
    <vehicle id="lorry_0" type="lorry__truck" depart="0.00">
        <route edges="-51263358 108242702#1 108242702#2 108242702#3 108242702#4 108242702#5 -1494760251#3 -1494760251#2 -1494760251#1 -1494760251#0 -548542956#8 -548542956#7 -548542956#6 -548542956#5 -548542956#4 -548542956#3 -548542956#1 -548542956#0 -13881187#8 -13881187#7 -13881187#6 -13881187#5 -13881187#4 -13881187#3 -13881187#2 -13881187#1 -8013925#4 -8013925#3 -8013925#2"/>
    </vehicle>
    <vehicle id="lorry_1" type="lorry__truck" depart="1.20">
        <route edges="-5914884#2 -5914884#1 -5914884#0 -6094840#1 -6094840#0 15390366 -8571341#4 -8571341#3 -8571341#2 -8571341#1 -8571341#0 23418540#0 23418540#1 556368820 23418538#1 15390370#6 -51149925#2 -51149925#1 -51149925#0 -548542956#8 -548542956#7"/>
    </vehicle>
    <vehicle id="lorry_2" type="lorry__truck" depart="2.40">
        <route edges="-108243887#1 536863283 -108209930#2 108209928#0 15390370#4 15390370#5 -23418538#1 -23418538#0 -23418540#1 -23418540#0 8571341#0 8571341#1 8571341#2 8571341#3 8571341#4 -19328193 6094840#0 6094840#1 6094840#2 6094840#3 6094840#4 6743656#0 6743656#1 6743656#2 6743656#3 6743656#4 6743656#5 6743656#6 6743656#7 6743656#8 6743656#9 6743656#11 374254546 -6743656#9 -6743656#8"/>
    </vehicle>
    <vehicle id="lorry_3" type="lorry__truck" depart="3.60">
        <route edges="6743656#2 556388609 8625179#0 8625179#1 8625179#2 -23417672#2 -23417672#1 -23417672#0 4860438#17 4860438#18 4860438#19 4860438#20 4860438#21 4860438#22 5914873#0 5914873#2 5914873#3 5914873#4 5914873#6 23418540#0 23418540#1 556368820 23418538#1 556902783 108209932#0 -108209931"/>
    </vehicle>
    <vehicle id="lorry_4" type="lorry__truck" depart="4.80">
        <route edges="108272789 108272790#1 -108272785#0 108272782#2 108272782#3 108272782#4 108272782#5 545693552#2 545693552#3 545693552#4 545693552#5 4860438#0 4860438#2 4860438#3 4860438#4 4860438#5 4860438#7 4860438#9 4860438#10 4860438#11 4860438#12 4860438#13 4860438#15 4860438#16 4860438#17 4860438#18 4860438#19 4860438#20 4860438#21 4860438#22 4860438#23 4860438#24 4860438#25 4860438#26 -23855289#7 -23855289#6 -23855289#4 -11528635 11528612#0 15242152#0"/>
    </vehicle>
    <vehicle id="lorry_5" type="lorry__truck" depart="6.00">
        <route edges="495414196#2 -19328195#2 -19328195#1 -19328195#0 -19328193 -4860438#26 -4860438#25 -4860438#24 -4860438#23 -4860438#22 -4860438#21 -4860438#20 -4860438#19 -4860438#18 -4860438#17 -4860438#16 -4860438#15 -4860438#13 -4860438#12 -4860438#11 -4860438#10 -4860438#9 -4860438#7 -4860438#5 -4860438#4 -4860438#3 -4860438#2 -4860438#0 -545693552#5 -545693552#4 -545693552#3 -545693552#2 -545693552#0 13881187#0 13881187#1 13881187#2 13881187#3 1428967154#0 1428967154#2 374247424#6 597896253#2 597896253#3"/>
    </vehicle>
    <vehicle id="lorry_6" type="lorry__truck" depart="7.20">
        <route edges="-108242702#1 -23185037#4 -23185037#3 -23185037#2 -23185037#0 108242702#3 108242702#4 108242702#5 -1494760251#3 -1494760251#2 -1494760251#1 -1494760251#0 -548542956#8 -548542956#7 -548542956#6 -548542956#5 -548542956#4 -548542956#3 -548542956#1 -548542956#0 -13881187#8 -13881187#7 -13881187#6 -13881187#5 -13881187#4 -13881187#3 -13881187#2 -13881187#1 -8013925#4 -8013925#3 -496810972 -4860438#3 -4860438#2 -4860438#0 -545693552#5 -545693552#4"/>
    </vehicle>
    <vehicle id="lorry_7" type="lorry__truck" depart="8.40">
        <route edges="-537031568 495414196#2 -19328195#2 -19328195#1 -19328195#0 -19328193 -4860438#26 -4860438#25 -4860438#24 -4860438#23 -4860438#22 -4860438#21 -4860438#20 -4860438#19 -4860438#18 -4860438#17 -4860438#16 -4860438#15 -4860438#13 -4860438#12 -4860438#11 -4860438#10 -4860438#9 -4860438#7 -4860438#5 -4860438#4 -4860438#3 -4860438#2 -4860438#0 -545693552#5 -545693552#4 -545693552#3 -545693552#2 -545693552#0 -597896253#8"/>
    </vehicle>
    <vehicle id="lorry_8" type="lorry__truck" depart="9.60">
        <route edges="597896253#5 597896253#6 597896253#8 545693552#0 545693552#2 545693552#3 545693552#4 545693552#5 4860438#0 4860438#2 4860438#3 4860438#4 4860438#5 4860438#7 4860438#9 4860438#10 4860438#11 4860438#12 4860438#13 4860438#15 4860438#16 4860438#17 4860438#18 4860438#19 4860438#20 4860438#21 4860438#22 5914873#0 5914873#2 5914873#3 5914873#4 5914873#6 8571341#0 8571341#1 8571341#2 543179760"/>
    </vehicle>
    <vehicle id="lorry_9" type="lorry__truck" depart="10.80">
        <route edges="23185037#3 23185037#4 108242702#1 108242702#2 108242702#3 108242702#4 108242702#5 -1494760251#3 -1494760251#2 -1494760251#1 -1494760251#0 -548542956#8 -548542956#7 -548542956#6 -548542956#5 -548542956#4 -548542956#3 -548542956#1 -548542956#0 -13881187#8 -13881187#7 -13881187#6 -13881187#5 374247437#0 556975357 374249088#1 -8013925#1 -8013925#0 -4860438#5 -4860438#4"/>
    </vehicle>
    <vehicle id="lorry_10" type="lorry__truck" depart="12.00">
        <route edges="374247434#1 1429007177 -13881187#5 -13881187#4 -13881187#3 -13881187#2 -13881187#1 -13881187#0 545693552#0 545693552#2 545693552#3 545693552#4 545693552#5 4860438#0 4860438#2 4860438#3 4860438#4 4860438#5 -108208918 -6100260#6 -368796142#2 374249099#0 374249099#2 -368793531#3 -374254542#0 -374249101#1"/>
    </vehicle>
    <vehicle id="lorry_11" type="lorry__truck" depart="13.20">
        <route edges="-8625152 -4860438#10 -4860438#9 -4860438#7 -4860438#5 -4860438#4 -4860438#3 -4860438#2 -4860438#0 -545693552#5 -545693552#4 -545693552#3 -545693552#2 -545693552#0 13881187#0 13881187#1 13881187#2 13881187#3 13881187#4 13881187#5 13881187#6 13881187#7 13881187#8 13881187#9 548542956#1 548542956#3 548542956#4 548542956#5 548542956#6 548542956#7 548542956#8 1494760251#0 1494760251#1 1494760251#2 1494760251#3 -108242702#5 -108242702#4 -108242702#3 -108242702#2"/>
    </vehicle>
    <vehicle id="lorry_12" type="lorry__truck" depart="14.40">
        <route edges="-8049874#1 -8049874#0 -19328195#3 -19328195#2 -19328195#1 -19328195#0 -19328193 -4860438#26 -4860438#25 -4860438#24 -4860438#23 -4860438#22 -4860438#21 -4860438#20 -4860438#19 -4860438#18 -4860438#17 -4860438#16 -4860438#15 -4860438#13 -4860438#12 -4860438#11 -4860438#10 -4860438#9 -4860438#7 -4860438#5 -4860438#4 -4860438#3 -4860438#2 -4860438#0 -545693552#5 -545693552#4 -545693552#3 -545693552#2 -545693552#0 -597896253#8 -597896253#6 -597896253#5 -597896253#4 -597896253#3 -597896253#2 374247420#0"/>
    </vehicle>
    <vehicle id="lorry_13" type="lorry__truck" depart="15.60">
        <route edges="-6094840#4 -6094840#3 -6094840#2 -6094840#1 -6094840#0 -4860438#26 -4860438#25 -4860438#24 -4860438#23 -4860438#22 -4860438#21 -4860438#20 -4860438#19 -4860438#18 -4860438#17 -4860438#16 -4860438#15 -4860438#13 -4860438#12 -4860438#11 -4860438#10 -4860438#9 -4860438#7 8013925#0 8013925#1 122047017#0 122047017#1 122047017#2 374247438#0"/>
    </vehicle>
    <vehicle id="lorry_14" type="lorry__truck" depart="16.80">
        <route edges="374254548#0 -368794775#3 -368794775#2 -368794775#1 8625179#1 8625179#2 -23417672#2 -23417672#1 -23417672#0 4860438#17 4860438#18 4860438#19 4860438#20 4860438#21 4860438#22 5914873#0 5914873#2 5914873#3 5914873#4 5914873#6 23418540#0 23418540#1 556368820 23418538#1 -15390370#5 -15390370#4 -108209928#0 108209930#2 -536863283"/>
    </vehicle>
    <vehicle id="lorry_15" type="lorry__truck" depart="18.00">
        <route edges="-108209928#0 -495414200 23185037#4 108242702#1 108242702#2 108242702#3 108242702#4 108242702#5 -1494760251#3 -1494760251#2 -1494760251#1 -1494760251#0 -548542956#8 -548542956#7 -548542956#6 -548542956#5 -548542956#4 -548542956#3 -548542956#1 -548542956#0 -13881187#8 -13881187#7 -13881187#6 -13881187#5 -13881187#4 -13881187#3 -13881187#2 -13881187#1 -13881187#0 545693552#0 545693552#2 545693552#3 545693552#4 545693552#5 4860438#0 4860438#2 4860438#3 4860438#4 4860438#5 -108208918 -6100260#6 -368796142#2 374249099#0 374249099#2 -368793531#3 -368793531#2 -374254542#1"/>
    </vehicle>
    <vehicle id="lorry_16" type="lorry__truck" depart="19.20">
        <route edges="6743656#2 556388609 8625179#0 8625179#1 8625179#2 8625179#4 8625179#5 -6100260#0 -4860438#13 -4860438#12 -4860438#11 -4860438#10 -4860438#9 -4860438#7 -4860438#5 -4860438#4 -4860438#3 -4860438#2 -4860438#0 -545693552#5 -545693552#4 -545693552#3 -545693552#2 -545693552#0 13881187#0 13881187#1 13881187#2 13881187#3 13881187#4 13881187#5 13881187#6 13881187#7 13881187#8 13881187#9 374247430#0"/>
    </vehicle>
    <vehicle id="lorry_17" type="lorry__truck" depart="20.40">
        <route edges="-23592598#2 11528608#0 11528608#1 11528608#2 11528635 23855289#4 23855289#5 23855289#7 -4860438#26 -4860438#25 -4860438#24 -4860438#23 -4860438#22 -4860438#21 -4860438#20 -4860438#19 -4860438#18 -4860438#17 -4860438#16 -4860438#15 -4860438#13 -4860438#12 -4860438#11 -4860438#10 -4860438#9 -4860438#7 8013925#0 8013925#1 -374249088#1 672113030 374247437#1 597904299"/>
    </vehicle>
    <vehicle id="lorry_18" type="lorry__truck" depart="21.60">
        <route edges="-23185037#4 495414200 108209928#0 15390370#4 15390370#5 -23418538#1 -23418538#0 -23418540#1 -23418540#0 -556900441 -5914873#4 -5914873#3 -5914873#2 -5914873#0 -4860438#22 -4860438#21 -4860438#20 -4860438#19 -4860438#18 -4860438#17 -4860438#16 -4860438#15 6100260#0 -8625179#5 -8625179#4 -23417672#2"/>
    </vehicle>
    <vehicle id="lorry_19" type="lorry__truck" depart="22.80">
        <route edges="-10548191 -331397686#1 368793531#0 368793531#1 -374254542#1 368793531#3 -374249099#2 -374249099#1 368796142#2 -6100260#5 -6100260#4 -6100260#3 -6100260#1 -6100260#0 4860438#15 4860438#16 4860438#17 4860438#18 4860438#19 4860438#20 4860438#21 4860438#22 5914873#0 5914873#2 5914873#3 5914873#4 5914873#6 23418540#0 23418540#1 556368820 23418538#1 -15390370#5 -15390370#4 -108209928#0 -495414200 -23185037#3"/>
    </vehicle>
    <vehicle id="lorry_20" type="lorry__truck" depart="24.00">
        <route edges="-8013925#1 -8013925#0 -4860438#5 -4860438#4 -4860438#3 -4860438#2 -4860438#0 -545693552#5 -545693552#4 -545693552#3 -545693552#2 -545693552#0 13881187#0 13881187#1 13881187#2 13881187#3 13881187#4 13881187#5 13881187#6 13881187#7 13881187#8 13881187#9 548542956#1 548542956#3 548542956#4 548542956#5 548542956#6 548542956#7 548542956#8 1494760251#0 1494760251#1 1494760251#2 1494760251#3 -108242702#5 -108242702#4 -108242702#3 23185037#0 23915155 108242702#2"/>
    </vehicle>
    <vehicle id="lorry_21" type="lorry__truck" depart="25.20">
        <route edges="108208907#1 108208908 108208905#1 -51149925#0 -548542956#8 -548542956#7 -548542956#6 -548542956#5 -548542956#4 -548542956#3 -548542956#1 -548542956#0 -13881187#8 -13881187#7 -13881187#6 -13881187#5 -13881187#4 -13881187#3 -13881187#2 -13881187#1 -13881187#0 545693552#0 545693552#2 545693552#3 545693552#4 545693552#5 4860438#0 4860438#2 4860438#3 4860438#4 4860438#5 -108208918 -6100260#6 -368796142#2 374249099#0 374249099#2 -368793531#3 -374254542#0 -374249101#1"/>
    </vehicle>
    <vehicle id="lorry_22" type="lorry__truck" depart="26.40">
        <route edges="-1428967152 -1428967154#0 13881187#4 13881187#5 13881187#6 13881187#7 13881187#8 13881187#9 548542956#1 548542956#3 548542956#4 548542956#5 548542956#6 548542956#7 548542956#8 1494760251#0 1494760251#1 1494760251#2 1494760251#3 -108242702#5 -108242702#4 -108242702#3 23185037#0 23915155 108242702#2"/>
    </vehicle>
    <vehicle id="lorry_23" type="lorry__truck" depart="27.60">
        <route edges="-1377451101 -4860438#2 -4860438#0 -545693552#5 -545693552#4 -545693552#3 -545693552#2 -545693552#0 13881187#0 13881187#1 13881187#2 13881187#3 13881187#4 13881187#5 13881187#6 13881187#7 13881187#8 13881187#9 548542956#1 548542956#3 548542956#4 548542956#5 548542956#6 548542956#7 548542956#8 51149925#0 51149925#1 51149925#2 -556902784 -15390370#5 -15390370#4 -15390370#3 -495414217#1 495414216#0"/>
    </vehicle>
    <vehicle id="lorry_24" type="lorry__truck" depart="28.80">
        <route edges="-19328195#1 -19328195#0 -19328193 -4860438#26 -4860438#25 -4860438#24 -4860438#23 -4860438#22 -4860438#21 -4860438#20 -4860438#19 -4860438#18 -4860438#17 23417672#0 23417672#1 23417672#2 -8625179#2 -8625179#1 -374254547#1 -374254547#0"/>
    </vehicle>
</routes>
