<?xml version="1.0" encoding="UTF-8"?>

<!-- generated on 2026-07-01 15:09:02.489251 by Eclipse SUMO randomTrips.py v1.27.0
<configuration>
    <net-file value="galle.net.xml"/>
    <additional-files value="vtypes.add.xml"/>
    <output-trip-file value="trips_bus.trips.xml"/>
    <route-file value="trips_bus.rou.xml"/>
    <vtype-output value="bus"/>
    <prefix value="bus_"/>
    <vehicle-class value="bus"/>
    <fringe-factor value="1"/>
    <allow-fringe.min-length value="1000.0"/>
    <seed value="45"/>
    <min-distance value="1200.0"/>
    <max-distance value="4000.0"/>
    <end value="30.0"/>
    <period value="1.2"/>
</configuration>
-->

<routes xmlns:xsi="http://www.w3.org/2001/XMLSchema-instance" xsi:noNamespaceSchemaLocation="http://sumo.dlr.de/xsd/routes_file.xsd">
    <trip id="bus_0" depart="0.00" from="-374249101#2" to="108242702#0" type="bus__bus"/>
    <trip id="bus_1" depart="1.20" from="495414217#1" to="374249093" type="bus__bus"/>
    <trip id="bus_2" depart="2.40" from="-13881187#5" to="-6743656#15" type="bus__bus"/>
    <trip id="bus_3" depart="3.60" from="-23418543#2" to="-374254551" type="bus__bus"/>
    <trip id="bus_4" depart="4.80" from="-1494760251#1" to="-148652003#2" type="bus__bus"/>
    <trip id="bus_5" depart="6.00" from="4860428#2" to="23855289#4" type="bus__bus"/>
    <trip id="bus_6" depart="7.20" from="108272782#0" to="-11528608#0" type="bus__bus"/>
    <trip id="bus_7" depart="8.40" from="13881187#2" to="-495414199#0" type="bus__bus"/>
    <trip id="bus_8" depart="9.60" from="-1429007178" to="-6094840#0" type="bus__bus"/>
    <trip id="bus_9" depart="10.80" from="-108209932#0" to="547139152" type="bus__bus"/>
    <trip id="bus_10" depart="12.00" from="186444556#0" to="1276414374" type="bus__bus"/>
    <trip id="bus_11" depart="13.20" from="-374254559" to="-495414220#0" type="bus__bus"/>
    <trip id="bus_12" depart="14.40" from="-1525386236" to="23418538#1" type="bus__bus"/>
    <trip id="bus_13" depart="15.60" from="1494760251#2" to="1245196885" type="bus__bus"/>
    <trip id="bus_14" depart="16.80" from="19328195#1" to="108242702#5" type="bus__bus"/>
    <trip id="bus_15" depart="18.00" from="-1377451100" to="-23417666" type="bus__bus"/>
    <trip id="bus_16" depart="19.20" from="-13881187#2" to="23417665#0" type="bus__bus"/>
    <trip id="bus_17" depart="20.40" from="13881187#0" to="-5914884#1" type="bus__bus"/>
    <trip id="bus_18" depart="21.60" from="15390370#2" to="536308988#1" type="bus__bus"/>
    <trip id="bus_19" depart="22.80" from="-374247424#0" to="-6743656#14" type="bus__bus"/>
    <trip id="bus_20" depart="24.00" from="108243887#0" to="4860438#9" type="bus__bus"/>
    <trip id="bus_21" depart="25.20" from="-15242152#1" to="368794775#2" type="bus__bus"/>
    <trip id="bus_22" depart="26.40" from="108209930#0" to="6094840#1" type="bus__bus"/>
    <trip id="bus_23" depart="27.60" from="-537559372" to="-108208917#0" type="bus__bus"/>
    <trip id="bus_24" depart="28.80" from="-19328195#8" to="1428967151" type="bus__bus"/>
    <trip id="bus_25" depart="30.00" from="495414199#0" to="-108272782#2" type="bus__bus"/>
</routes>
