<?xml version="1.0" encoding="UTF-8"?>

<!-- generated on 2026-07-01 15:09:04.889043 by Eclipse SUMO randomTrips.py v1.27.0
<configuration>
    <net-file value="galle.net.xml"/>
    <additional-files value="vtypes.add.xml"/>
    <output-trip-file value="trips_truck.trips.xml"/>
    <route-file value="trips_truck.rou.xml"/>
    <vtype-output value="truck"/>
    <prefix value="truck_"/>
    <vehicle-class value="truck"/>
    <fringe-factor value="1"/>
    <allow-fringe.min-length value="1000.0"/>
    <seed value="47"/>
    <min-distance value="1200.0"/>
    <max-distance value="4000.0"/>
    <end value="30.0"/>
    <period value="1.2"/>
</configuration>
-->

<routes xmlns:xsi="http://www.w3.org/2001/XMLSchema-instance" xsi:noNamespaceSchemaLocation="http://sumo.dlr.de/xsd/routes_file.xsd">
    <trip id="truck_0" depart="0.00" from="-51263358" to="-8013925#2" type="truck__truck"/>
    <trip id="truck_1" depart="1.20" from="-5914884#2" to="-548542956#7" type="truck__truck"/>
    <trip id="truck_2" depart="2.40" from="-108243887#1" to="-6743656#8" type="truck__truck"/>
    <trip id="truck_3" depart="3.60" from="6743656#2" to="-108209931" type="truck__truck"/>
    <trip id="truck_4" depart="4.80" from="108272789" to="15242152#0" type="truck__truck"/>
    <trip id="truck_5" depart="6.00" from="495414196#2" to="597896253#3" type="truck__truck"/>
    <trip id="truck_6" depart="7.20" from="-108242702#1" to="-545693552#4" type="truck__truck"/>
    <trip id="truck_7" depart="8.40" from="-537031568" to="-597896253#8" type="truck__truck"/>
    <trip id="truck_8" depart="9.60" from="597896253#5" to="543179760" type="truck__truck"/>
    <trip id="truck_9" depart="10.80" from="23185037#3" to="-4860438#4" type="truck__truck"/>
    <trip id="truck_10" depart="12.00" from="374247434#1" to="-374249101#1" type="truck__truck"/>
    <trip id="truck_11" depart="13.20" from="-8625152" to="-108242702#2" type="truck__truck"/>
    <trip id="truck_12" depart="14.40" from="-8049874#1" to="374247420#0" type="truck__truck"/>
    <trip id="truck_13" depart="15.60" from="-6094840#4" to="374247438#0" type="truck__truck"/>
    <trip id="truck_14" depart="16.80" from="374254548#0" to="-536863283" type="truck__truck"/>
    <trip id="truck_15" depart="18.00" from="-108209928#0" to="-374254542#1" type="truck__truck"/>
    <trip id="truck_16" depart="19.20" from="6743656#2" to="374247430#0" type="truck__truck"/>
    <trip id="truck_17" depart="20.40" from="-23592598#2" to="597904299" type="truck__truck"/>
    <trip id="truck_18" depart="21.60" from="-23185037#4" to="-23417672#2" type="truck__truck"/>
    <trip id="truck_19" depart="22.80" from="-10548191" to="-23185037#3" type="truck__truck"/>
    <trip id="truck_20" depart="24.00" from="-8013925#1" to="108242702#2" type="truck__truck"/>
    <trip id="truck_21" depart="25.20" from="108208907#1" to="-374249101#1" type="truck__truck"/>
    <trip id="truck_22" depart="26.40" from="-1428967152" to="108242702#2" type="truck__truck"/>
    <trip id="truck_23" depart="27.60" from="-1377451101" to="495414216#0" type="truck__truck"/>
    <trip id="truck_24" depart="28.80" from="-19328195#1" to="-374254547#0" type="truck__truck"/>
    <trip id="truck_25" depart="30.00" from="374254546" to="-23855289#3" type="truck__truck"/>
</routes>
